<?xml version="1.0" encoding="UTF-8"?>

<!-- generated on 2024-06-01 20:39:36.576673 by randomTrips.py v1_14_1+0000-f654d7b963e
<configuration>
    <binomial value="4"/>
    <end value="1000"/>
    <lanes value="True"/>
    <net-file value="osm.net.xml"/>
    <period value="0.7"/>
    <route-file value="osm.passenger.rou.xml"/>
    <seed value="78"/>
    <output-trip-file value="osm.passenger.trips.xml"/>
    <validate value="True"/>
</configuration>
-->

<!-- generated on 2024-06-01 20:39:36 by Eclipse SUMO duarouter Version 1.14.1
<configuration xmlns:xsi="http://www.w3.org/2001/XMLSchema-instance" xsi:noNamespaceSchemaLocation="http://sumo.dlr.de/xsd/duarouterConfiguration.xsd">

    <input>
        <net-file value="osm.net.xml"/>
        <route-files value="osm.passenger.trips.xml"/>
    </input>

    <output>
        <output-file value="osm.passenger.rou.xml"/>
        <alternatives-output value="NUL"/>
    </output>

    <time>
        <begin value="0"/>
        <end value="1000"/>
    </time>

    <report>
        <no-warnings value="true"/>
        <ignore-errors value="true"/>
        <no-step-log value="true"/>
    </report>

</configuration>
-->

<routes xmlns:xsi="http://www.w3.org/2001/XMLSchema-instance" xsi:noNamespaceSchemaLocation="http://sumo.dlr.de/xsd/routes_file.xsd">
    <vehicle id="0" depart="0.00">
        <route edges="E5 E3"/>
    </vehicle>
    <vehicle id="1" depart="0.00">
        <route edges="-E4 -E1"/>
    </vehicle>
    <vehicle id="2" depart="0.00">
        <route edges="E1 E4"/>
    </vehicle>
    <vehicle id="3" depart="1.00">
        <route edges="E1 -E5"/>
    </vehicle>
    <vehicle id="4" depart="1.00">
        <route edges="-E3 -E5"/>
    </vehicle>
    <vehicle id="5" depart="2.00">
        <route edges="E5 E4"/>
    </vehicle>
    <vehicle id="6" depart="3.00">
        <route edges="-E3 -E1"/>
    </vehicle>
    <vehicle id="7" depart="3.00">
        <route edges="E1 E4"/>
    </vehicle>
    <vehicle id="8" depart="3.00">
        <route edges="E5 -E1"/>
    </vehicle>
    <vehicle id="9" depart="5.00">
        <route edges="E5 -E1"/>
    </vehicle>
    <vehicle id="10" depart="6.00">
        <route edges="-E4 E3"/>
    </vehicle>
    <vehicle id="12" depart="7.00">
        <route edges="E1 E3"/>
    </vehicle>
    <vehicle id="16" depart="9.00">
        <route edges="-E3 -E1"/>
    </vehicle>
    <vehicle id="17" depart="9.00">
        <route edges="-E4 -E1"/>
    </vehicle>
    <vehicle id="18" depart="10.00">
        <route edges="-E3 -E1"/>
    </vehicle>
    <vehicle id="20" depart="11.00">
        <route edges="E1 E3"/>
    </vehicle>
    <vehicle id="21" depart="12.00">
        <route edges="-E3 E4"/>
    </vehicle>
    <vehicle id="22" depart="12.00">
        <route edges="-E3 -E1"/>
    </vehicle>
    <vehicle id="23" depart="13.00">
        <route edges="-E4 -E1"/>
    </vehicle>
    <vehicle id="25" depart="17.00">
        <route edges="-E4 -E1"/>
    </vehicle>
    <vehicle id="26" depart="18.00">
        <route edges="E1 E4"/>
    </vehicle>
    <vehicle id="27" depart="19.00">
        <route edges="-E3 E4"/>
    </vehicle>
    <vehicle id="28" depart="20.00">
        <route edges="-E3 -E5"/>
    </vehicle>
    <vehicle id="29" depart="22.00">
        <route edges="E1 -E5"/>
    </vehicle>
    <vehicle id="30" depart="22.00">
        <route edges="E5 -E1"/>
    </vehicle>
    <vehicle id="31" depart="23.00">
        <route edges="E1 -E5"/>
    </vehicle>
    <vehicle id="32" depart="24.00">
        <route edges="E5 E3"/>
    </vehicle>
    <vehicle id="34" depart="25.00">
        <route edges="E1 E4"/>
    </vehicle>
    <vehicle id="35" depart="27.00">
        <route edges="-E4 -E1"/>
    </vehicle>
    <vehicle id="36" depart="27.00">
        <route edges="E5 -E1"/>
    </vehicle>
    <vehicle id="37" depart="27.00">
        <route edges="-E4 E3"/>
    </vehicle>
    <vehicle id="38" depart="29.00">
        <route edges="-E4 E3"/>
    </vehicle>
    <vehicle id="41" depart="30.00">
        <route edges="-E3 -E5"/>
    </vehicle>
    <vehicle id="43" depart="33.00">
        <route edges="E5 E4"/>
    </vehicle>
    <vehicle id="44" depart="34.00">
        <route edges="-E4 -E5"/>
    </vehicle>
    <vehicle id="46" depart="34.00">
        <route edges="-E4 -E5"/>
    </vehicle>
    <vehicle id="48" depart="35.00">
        <route edges="E1 -E5"/>
    </vehicle>
    <vehicle id="52" depart="37.00">
        <route edges="-E4 -E1"/>
    </vehicle>
    <vehicle id="54" depart="38.00">
        <route edges="E5 E3"/>
    </vehicle>
    <vehicle id="55" depart="39.00">
        <route edges="E1 -E5"/>
    </vehicle>
    <vehicle id="56" depart="39.00">
        <route edges="-E3 -E1"/>
    </vehicle>
    <vehicle id="59" depart="42.00">
        <route edges="E1 E4"/>
    </vehicle>
    <vehicle id="60" depart="43.00">
        <route edges="-E3 E4"/>
    </vehicle>
    <vehicle id="61" depart="43.00">
        <route edges="E1 E3"/>
    </vehicle>
    <vehicle id="62" depart="43.00">
        <route edges="-E4 -E5"/>
    </vehicle>
    <vehicle id="63" depart="45.00">
        <route edges="E5 -E1"/>
    </vehicle>
    <vehicle id="64" depart="45.00">
        <route edges="-E4 -E1"/>
    </vehicle>
    <vehicle id="65" depart="46.00">
        <route edges="-E4 -E1"/>
    </vehicle>
    <vehicle id="66" depart="46.00">
        <route edges="E5 -E1"/>
    </vehicle>
    <vehicle id="68" depart="48.00">
        <route edges="E5 -E1"/>
    </vehicle>
    <vehicle id="69" depart="49.00">
        <route edges="E5 E3"/>
    </vehicle>
    <vehicle id="70" depart="51.00">
        <route edges="E5 E4"/>
    </vehicle>
    <vehicle id="71" depart="51.00">
        <route edges="E5 E4"/>
    </vehicle>
    <vehicle id="72" depart="52.00">
        <route edges="E1 E4"/>
    </vehicle>
    <vehicle id="74" depart="54.00">
        <route edges="E5 -E1"/>
    </vehicle>
    <vehicle id="76" depart="56.00">
        <route edges="E5 -E1"/>
    </vehicle>
    <vehicle id="77" depart="56.00">
        <route edges="-E3 -E1"/>
    </vehicle>
    <vehicle id="78" depart="56.00">
        <route edges="E1 E3"/>
    </vehicle>
    <vehicle id="80" depart="58.00">
        <route edges="E1 E4"/>
    </vehicle>
    <vehicle id="81" depart="58.00">
        <route edges="-E4 E3"/>
    </vehicle>
    <vehicle id="82" depart="59.00">
        <route edges="-E3 -E1"/>
    </vehicle>
    <vehicle id="85" depart="60.00">
        <route edges="E5 E3"/>
    </vehicle>
    <vehicle id="86" depart="60.00">
        <route edges="E5 E3"/>
    </vehicle>
    <vehicle id="88" depart="61.00">
        <route edges="E1 E4"/>
    </vehicle>
    <vehicle id="89" depart="63.00">
        <route edges="E1 E4"/>
    </vehicle>
    <vehicle id="90" depart="63.00">
        <route edges="E5 E3"/>
    </vehicle>
    <vehicle id="91" depart="63.00">
        <route edges="-E4 -E5"/>
    </vehicle>
    <vehicle id="94" depart="66.00">
        <route edges="E5 E4"/>
    </vehicle>
    <vehicle id="95" depart="67.00">
        <route edges="E1 -E5"/>
    </vehicle>
    <vehicle id="96" depart="67.00">
        <route edges="E5 E3"/>
    </vehicle>
    <vehicle id="97" depart="68.00">
        <route edges="-E4 E3"/>
    </vehicle>
    <vehicle id="98" depart="68.00">
        <route edges="-E3 -E1"/>
    </vehicle>
    <vehicle id="99" depart="69.00">
        <route edges="-E3 -E1"/>
    </vehicle>
    <vehicle id="100" depart="69.00">
        <route edges="E1 -E5"/>
    </vehicle>
    <vehicle id="101" depart="71.00">
        <route edges="E5 -E1"/>
    </vehicle>
    <vehicle id="102" depart="71.00">
        <route edges="-E3 E4"/>
    </vehicle>
    <vehicle id="103" depart="73.00">
        <route edges="E5 E4"/>
    </vehicle>
    <vehicle id="104" depart="73.00">
        <route edges="E5 -E1"/>
    </vehicle>
    <vehicle id="105" depart="73.00">
        <route edges="E1 E4"/>
    </vehicle>
    <vehicle id="108" depart="78.00">
        <route edges="-E3 -E5"/>
    </vehicle>
    <vehicle id="109" depart="80.00">
        <route edges="E5 E4"/>
    </vehicle>
    <vehicle id="110" depart="80.00">
        <route edges="-E4 -E1"/>
    </vehicle>
    <vehicle id="112" depart="81.00">
        <route edges="-E4 E3"/>
    </vehicle>
    <vehicle id="113" depart="82.00">
        <route edges="E1 -E5"/>
    </vehicle>
    <vehicle id="114" depart="83.00">
        <route edges="-E3 -E1"/>
    </vehicle>
    <vehicle id="116" depart="83.00">
        <route edges="-E4 -E1"/>
    </vehicle>
    <vehicle id="117" depart="84.00">
        <route edges="E1 -E5"/>
    </vehicle>
    <vehicle id="119" depart="84.00">
        <route edges="E1 E3"/>
    </vehicle>
    <vehicle id="120" depart="85.00">
        <route edges="E1 E4"/>
    </vehicle>
    <vehicle id="121" depart="85.00">
        <route edges="-E4 E3"/>
    </vehicle>
    <vehicle id="123" depart="88.00">
        <route edges="E1 E4"/>
    </vehicle>
    <vehicle id="124" depart="89.00">
        <route edges="E5 -E1"/>
    </vehicle>
    <vehicle id="125" depart="89.00">
        <route edges="E5 E3"/>
    </vehicle>
    <vehicle id="126" depart="90.00">
        <route edges="-E3 -E5"/>
    </vehicle>
    <vehicle id="128" depart="91.00">
        <route edges="-E3 -E5"/>
    </vehicle>
    <vehicle id="129" depart="91.00">
        <route edges="-E3 -E1"/>
    </vehicle>
    <vehicle id="130" depart="92.00">
        <route edges="-E3 E4"/>
    </vehicle>
    <vehicle id="131" depart="92.00">
        <route edges="E5 E4"/>
    </vehicle>
    <vehicle id="133" depart="93.00">
        <route edges="-E4 -E5"/>
    </vehicle>
    <vehicle id="135" depart="94.00">
        <route edges="E5 E3"/>
    </vehicle>
    <vehicle id="136" depart="95.00">
        <route edges="-E3 -E1"/>
    </vehicle>
    <vehicle id="138" depart="96.00">
        <route edges="E1 E4"/>
    </vehicle>
    <vehicle id="139" depart="96.00">
        <route edges="-E4 E3"/>
    </vehicle>
    <vehicle id="140" depart="99.00">
        <route edges="E5 E3"/>
    </vehicle>
    <vehicle id="141" depart="99.00">
        <route edges="E5 E3"/>
    </vehicle>
    <vehicle id="142" depart="100.00">
        <route edges="E5 E4"/>
    </vehicle>
    <vehicle id="143" depart="101.00">
        <route edges="-E3 E4"/>
    </vehicle>
    <vehicle id="144" depart="102.00">
        <route edges="-E4 -E5"/>
    </vehicle>
    <vehicle id="146" depart="104.00">
        <route edges="-E3 -E1"/>
    </vehicle>
    <vehicle id="147" depart="104.00">
        <route edges="-E3 -E5"/>
    </vehicle>
    <vehicle id="149" depart="105.00">
        <route edges="-E3 E4"/>
    </vehicle>
    <vehicle id="151" depart="107.00">
        <route edges="E5 E4"/>
    </vehicle>
    <vehicle id="155" depart="109.00">
        <route edges="E1 E3"/>
    </vehicle>
    <vehicle id="157" depart="110.00">
        <route edges="E5 -E1"/>
    </vehicle>
    <vehicle id="158" depart="111.00">
        <route edges="E5 E4"/>
    </vehicle>
    <vehicle id="159" depart="111.00">
        <route edges="-E4 -E1"/>
    </vehicle>
    <vehicle id="160" depart="112.00">
        <route edges="-E4 -E5"/>
    </vehicle>
    <vehicle id="161" depart="113.00">
        <route edges="E5 -E1"/>
    </vehicle>
    <vehicle id="163" depart="114.00">
        <route edges="-E4 -E1"/>
    </vehicle>
    <vehicle id="164" depart="115.00">
        <route edges="E5 E4"/>
    </vehicle>
    <vehicle id="165" depart="117.00">
        <route edges="-E3 -E1"/>
    </vehicle>
    <vehicle id="166" depart="118.00">
        <route edges="-E3 -E5"/>
    </vehicle>
    <vehicle id="167" depart="120.00">
        <route edges="-E3 -E1"/>
    </vehicle>
    <vehicle id="168" depart="120.00">
        <route edges="-E4 -E5"/>
    </vehicle>
    <vehicle id="169" depart="121.00">
        <route edges="E1 E4"/>
    </vehicle>
    <vehicle id="172" depart="123.00">
        <route edges="E1 -E5"/>
    </vehicle>
    <vehicle id="173" depart="124.00">
        <route edges="-E3 E4"/>
    </vehicle>
    <vehicle id="175" depart="125.00">
        <route edges="E1 -E5"/>
    </vehicle>
    <vehicle id="176" depart="125.00">
        <route edges="E1 -E5"/>
    </vehicle>
    <vehicle id="178" depart="126.00">
        <route edges="E1 E3"/>
    </vehicle>
    <vehicle id="179" depart="127.00">
        <route edges="E1 E3"/>
    </vehicle>
    <vehicle id="180" depart="127.00">
        <route edges="E5 -E1"/>
    </vehicle>
    <vehicle id="181" depart="128.00">
        <route edges="-E4 -E1"/>
    </vehicle>
    <vehicle id="182" depart="129.00">
        <route edges="E5 -E1"/>
    </vehicle>
    <vehicle id="183" depart="129.00">
        <route edges="E1 E3"/>
    </vehicle>
    <vehicle id="184" depart="131.00">
        <route edges="-E3 E4"/>
    </vehicle>
    <vehicle id="185" depart="132.00">
        <route edges="E5 E4"/>
    </vehicle>
    <vehicle id="188" depart="134.00">
        <route edges="-E4 -E1"/>
    </vehicle>
    <vehicle id="189" depart="134.00">
        <route edges="-E4 -E1"/>
    </vehicle>
    <vehicle id="190" depart="135.00">
        <route edges="-E4 -E5"/>
    </vehicle>
    <vehicle id="191" depart="135.00">
        <route edges="E1 E3"/>
    </vehicle>
    <vehicle id="192" depart="135.00">
        <route edges="E5 -E1"/>
    </vehicle>
    <vehicle id="193" depart="136.00">
        <route edges="E5 E3"/>
    </vehicle>
    <vehicle id="194" depart="137.00">
        <route edges="E5 E4"/>
    </vehicle>
    <vehicle id="195" depart="137.00">
        <route edges="E1 -E5"/>
    </vehicle>
    <vehicle id="196" depart="137.00">
        <route edges="-E3 -E5"/>
    </vehicle>
    <vehicle id="197" depart="138.00">
        <route edges="-E3 -E1"/>
    </vehicle>
    <vehicle id="198" depart="138.00">
        <route edges="-E4 -E1"/>
    </vehicle>
    <vehicle id="199" depart="139.00">
        <route edges="E5 E3"/>
    </vehicle>
    <vehicle id="200" depart="139.00">
        <route edges="E1 E3"/>
    </vehicle>
    <vehicle id="201" depart="140.00">
        <route edges="-E3 -E5"/>
    </vehicle>
    <vehicle id="202" depart="141.00">
        <route edges="E1 E4"/>
    </vehicle>
    <vehicle id="204" depart="144.00">
        <route edges="-E3 -E1"/>
    </vehicle>
    <vehicle id="205" depart="144.00">
        <route edges="-E3 -E1"/>
    </vehicle>
    <vehicle id="206" depart="145.00">
        <route edges="-E3 E4"/>
    </vehicle>
    <vehicle id="207" depart="146.00">
        <route edges="E5 -E1"/>
    </vehicle>
    <vehicle id="210" depart="148.00">
        <route edges="E1 -E5"/>
    </vehicle>
    <vehicle id="211" depart="149.00">
        <route edges="E1 E3"/>
    </vehicle>
    <vehicle id="212" depart="150.00">
        <route edges="E5 E4"/>
    </vehicle>
    <vehicle id="213" depart="151.00">
        <route edges="E1 E4"/>
    </vehicle>
    <vehicle id="214" depart="151.00">
        <route edges="E1 E4"/>
    </vehicle>
    <vehicle id="215" depart="153.00">
        <route edges="E5 E4"/>
    </vehicle>
    <vehicle id="216" depart="154.00">
        <route edges="-E4 -E1"/>
    </vehicle>
    <vehicle id="217" depart="155.00">
        <route edges="E5 -E1"/>
    </vehicle>
    <vehicle id="219" depart="157.00">
        <route edges="-E3 E4"/>
    </vehicle>
    <vehicle id="220" depart="157.00">
        <route edges="-E4 -E1"/>
    </vehicle>
    <vehicle id="221" depart="158.00">
        <route edges="-E4 -E5"/>
    </vehicle>
    <vehicle id="222" depart="159.00">
        <route edges="-E4 E3"/>
    </vehicle>
    <vehicle id="223" depart="160.00">
        <route edges="-E4 -E1"/>
    </vehicle>
    <vehicle id="225" depart="161.00">
        <route edges="-E4 -E1"/>
    </vehicle>
    <vehicle id="226" depart="161.00">
        <route edges="-E4 -E1"/>
    </vehicle>
    <vehicle id="227" depart="163.00">
        <route edges="E1 E4"/>
    </vehicle>
    <vehicle id="228" depart="164.00">
        <route edges="E5 -E1"/>
    </vehicle>
    <vehicle id="229" depart="165.00">
        <route edges="-E3 E4"/>
    </vehicle>
    <vehicle id="230" depart="166.00">
        <route edges="E1 E3"/>
    </vehicle>
    <vehicle id="231" depart="169.00">
        <route edges="E5 E4"/>
    </vehicle>
    <vehicle id="233" depart="171.00">
        <route edges="-E3 -E1"/>
    </vehicle>
    <vehicle id="234" depart="171.00">
        <route edges="E1 E4"/>
    </vehicle>
    <vehicle id="235" depart="173.00">
        <route edges="-E4 -E5"/>
    </vehicle>
    <vehicle id="237" depart="173.00">
        <route edges="E5 -E1"/>
    </vehicle>
    <vehicle id="238" depart="173.00">
        <route edges="E1 E3"/>
    </vehicle>
    <vehicle id="239" depart="174.00">
        <route edges="-E3 E4"/>
    </vehicle>
    <vehicle id="240" depart="175.00">
        <route edges="E1 E4"/>
    </vehicle>
    <vehicle id="242" depart="178.00">
        <route edges="E5 E4"/>
    </vehicle>
    <vehicle id="245" depart="179.00">
        <route edges="E1 E4"/>
    </vehicle>
    <vehicle id="247" depart="179.00">
        <route edges="-E3 -E5"/>
    </vehicle>
    <vehicle id="248" depart="180.00">
        <route edges="-E3 -E5"/>
    </vehicle>
    <vehicle id="249" depart="181.00">
        <route edges="E5 E3"/>
    </vehicle>
    <vehicle id="251" depart="182.00">
        <route edges="E1 E4"/>
    </vehicle>
    <vehicle id="252" depart="183.00">
        <route edges="-E4 -E5"/>
    </vehicle>
    <vehicle id="253" depart="184.00">
        <route edges="E1 E3"/>
    </vehicle>
    <vehicle id="254" depart="184.00">
        <route edges="-E4 -E1"/>
    </vehicle>
    <vehicle id="256" depart="186.00">
        <route edges="-E3 -E5"/>
    </vehicle>
    <vehicle id="257" depart="187.00">
        <route edges="-E4 E3"/>
    </vehicle>
    <vehicle id="258" depart="187.00">
        <route edges="E5 -E1"/>
    </vehicle>
    <vehicle id="259" depart="187.00">
        <route edges="E5 E3"/>
    </vehicle>
    <vehicle id="264" depart="189.00">
        <route edges="-E4 E3"/>
    </vehicle>
    <vehicle id="266" depart="190.00">
        <route edges="E5 -E1"/>
    </vehicle>
    <vehicle id="267" depart="191.00">
        <route edges="E5 E4"/>
    </vehicle>
    <vehicle id="268" depart="191.00">
        <route edges="E1 E4"/>
    </vehicle>
    <vehicle id="269" depart="192.00">
        <route edges="-E3 -E1"/>
    </vehicle>
    <vehicle id="271" depart="193.00">
        <route edges="E1 E3"/>
    </vehicle>
    <vehicle id="272" depart="193.00">
        <route edges="-E3 -E5"/>
    </vehicle>
    <vehicle id="273" depart="194.00">
        <route edges="E5 E3"/>
    </vehicle>
    <vehicle id="274" depart="194.00">
        <route edges="E5 -E1"/>
    </vehicle>
    <vehicle id="276" depart="195.00">
        <route edges="-E3 -E1"/>
    </vehicle>
    <vehicle id="277" depart="195.00">
        <route edges="E1 E4"/>
    </vehicle>
    <vehicle id="278" depart="196.00">
        <route edges="-E3 E4"/>
    </vehicle>
    <vehicle id="279" depart="197.00">
        <route edges="E1 -E5"/>
    </vehicle>
    <vehicle id="281" depart="198.00">
        <route edges="-E4 E3"/>
    </vehicle>
    <vehicle id="282" depart="199.00">
        <route edges="-E4 -E1"/>
    </vehicle>
    <vehicle id="283" depart="200.00">
        <route edges="-E4 E3"/>
    </vehicle>
    <vehicle id="285" depart="202.00">
        <route edges="E1 E3"/>
    </vehicle>
    <vehicle id="288" depart="205.00">
        <route edges="E5 E4"/>
    </vehicle>
    <vehicle id="290" depart="207.00">
        <route edges="E1 E4"/>
    </vehicle>
    <vehicle id="295" depart="210.00">
        <route edges="E5 -E1"/>
    </vehicle>
    <vehicle id="296" depart="211.00">
        <route edges="E1 E4"/>
    </vehicle>
    <vehicle id="297" depart="212.00">
        <route edges="-E4 -E1"/>
    </vehicle>
    <vehicle id="298" depart="212.00">
        <route edges="-E3 -E1"/>
    </vehicle>
    <vehicle id="299" depart="212.00">
        <route edges="E1 E3"/>
    </vehicle>
    <vehicle id="300" depart="213.00">
        <route edges="E1 -E5"/>
    </vehicle>
    <vehicle id="301" depart="213.00">
        <route edges="E5 E3"/>
    </vehicle>
    <vehicle id="303" depart="215.00">
        <route edges="E5 -E1"/>
    </vehicle>
    <vehicle id="304" depart="216.00">
        <route edges="-E3 -E5"/>
    </vehicle>
    <vehicle id="306" depart="216.00">
        <route edges="-E4 -E1"/>
    </vehicle>
    <vehicle id="309" depart="218.00">
        <route edges="-E3 -E5"/>
    </vehicle>
    <vehicle id="310" depart="218.00">
        <route edges="-E3 E4"/>
    </vehicle>
    <vehicle id="311" depart="219.00">
        <route edges="E1 E4"/>
    </vehicle>
    <vehicle id="312" depart="221.00">
        <route edges="-E4 E3"/>
    </vehicle>
    <vehicle id="313" depart="222.00">
        <route edges="E5 -E1"/>
    </vehicle>
    <vehicle id="315" depart="223.00">
        <route edges="-E4 -E5"/>
    </vehicle>
    <vehicle id="316" depart="226.00">
        <route edges="-E3 -E5"/>
    </vehicle>
    <vehicle id="317" depart="226.00">
        <route edges="E5 E3"/>
    </vehicle>
    <vehicle id="318" depart="227.00">
        <route edges="-E4 -E5"/>
    </vehicle>
    <vehicle id="319" depart="227.00">
        <route edges="-E3 -E5"/>
    </vehicle>
    <vehicle id="320" depart="228.00">
        <route edges="-E4 E3"/>
    </vehicle>
    <vehicle id="321" depart="229.00">
        <route edges="-E4 -E1"/>
    </vehicle>
    <vehicle id="322" depart="230.00">
        <route edges="-E4 E3"/>
    </vehicle>
    <vehicle id="323" depart="230.00">
        <route edges="E1 E4"/>
    </vehicle>
    <vehicle id="324" depart="231.00">
        <route edges="-E4 -E1"/>
    </vehicle>
    <vehicle id="325" depart="232.00">
        <route edges="E5 E3"/>
    </vehicle>
    <vehicle id="326" depart="233.00">
        <route edges="-E4 -E5"/>
    </vehicle>
    <vehicle id="327" depart="233.00">
        <route edges="-E3 -E1"/>
    </vehicle>
    <vehicle id="328" depart="235.00">
        <route edges="-E4 -E1"/>
    </vehicle>
    <vehicle id="330" depart="236.00">
        <route edges="E5 E3"/>
    </vehicle>
    <vehicle id="331" depart="236.00">
        <route edges="E1 E3"/>
    </vehicle>
    <vehicle id="332" depart="238.00">
        <route edges="E5 E3"/>
    </vehicle>
    <vehicle id="333" depart="239.00">
        <route edges="-E3 -E1"/>
    </vehicle>
    <vehicle id="334" depart="240.00">
        <route edges="-E3 -E5"/>
    </vehicle>
    <vehicle id="335" depart="243.00">
        <route edges="-E4 -E1"/>
    </vehicle>
    <vehicle id="336" depart="243.00">
        <route edges="-E3 -E1"/>
    </vehicle>
    <vehicle id="337" depart="246.00">
        <route edges="-E4 -E1"/>
    </vehicle>
    <vehicle id="340" depart="247.00">
        <route edges="-E4 -E1"/>
    </vehicle>
    <vehicle id="345" depart="250.00">
        <route edges="-E4 -E1"/>
    </vehicle>
    <vehicle id="347" depart="252.00">
        <route edges="E5 E4"/>
    </vehicle>
    <vehicle id="348" depart="253.00">
        <route edges="E1 E4"/>
    </vehicle>
    <vehicle id="349" depart="255.00">
        <route edges="E1 -E5"/>
    </vehicle>
    <vehicle id="353" depart="258.00">
        <route edges="E5 E3"/>
    </vehicle>
    <vehicle id="354" depart="258.00">
        <route edges="E1 -E5"/>
    </vehicle>
    <vehicle id="355" depart="259.00">
        <route edges="E5 E3"/>
    </vehicle>
    <vehicle id="356" depart="259.00">
        <route edges="E1 E4"/>
    </vehicle>
    <vehicle id="357" depart="260.00">
        <route edges="E1 E4"/>
    </vehicle>
    <vehicle id="360" depart="261.00">
        <route edges="-E4 -E5"/>
    </vehicle>
    <vehicle id="362" depart="262.00">
        <route edges="E1 E3"/>
    </vehicle>
    <vehicle id="363" depart="262.00">
        <route edges="E1 -E5"/>
    </vehicle>
    <vehicle id="364" depart="263.00">
        <route edges="E5 E3"/>
    </vehicle>
    <vehicle id="365" depart="263.00">
        <route edges="-E4 E3"/>
    </vehicle>
    <vehicle id="366" depart="263.00">
        <route edges="E5 E4"/>
    </vehicle>
    <vehicle id="369" depart="265.00">
        <route edges="E5 -E1"/>
    </vehicle>
    <vehicle id="370" depart="265.00">
        <route edges="E5 -E1"/>
    </vehicle>
    <vehicle id="371" depart="265.00">
        <route edges="E1 E4"/>
    </vehicle>
    <vehicle id="372" depart="267.00">
        <route edges="E5 E3"/>
    </vehicle>
    <vehicle id="373" depart="268.00">
        <route edges="E1 E4"/>
    </vehicle>
    <vehicle id="375" depart="271.00">
        <route edges="-E4 -E1"/>
    </vehicle>
    <vehicle id="376" depart="271.00">
        <route edges="-E3 E4"/>
    </vehicle>
    <vehicle id="378" depart="273.00">
        <route edges="E5 -E1"/>
    </vehicle>
    <vehicle id="379" depart="273.00">
        <route edges="E1 -E5"/>
    </vehicle>
    <vehicle id="380" depart="275.00">
        <route edges="E1 E4"/>
    </vehicle>
    <vehicle id="381" depart="275.00">
        <route edges="E5 E3"/>
    </vehicle>
    <vehicle id="382" depart="276.00">
        <route edges="-E3 E4"/>
    </vehicle>
    <vehicle id="383" depart="277.00">
        <route edges="-E4 -E1"/>
    </vehicle>
    <vehicle id="384" depart="278.00">
        <route edges="E1 -E5"/>
    </vehicle>
    <vehicle id="385" depart="279.00">
        <route edges="-E3 -E5"/>
    </vehicle>
    <vehicle id="386" depart="279.00">
        <route edges="E1 -E5"/>
    </vehicle>
    <vehicle id="387" depart="280.00">
        <route edges="-E3 -E1"/>
    </vehicle>
    <vehicle id="388" depart="281.00">
        <route edges="-E4 -E1"/>
    </vehicle>
    <vehicle id="392" depart="285.00">
        <route edges="-E4 -E5"/>
    </vehicle>
    <vehicle id="393" depart="286.00">
        <route edges="-E3 E4"/>
    </vehicle>
    <vehicle id="395" depart="287.00">
        <route edges="E1 E4"/>
    </vehicle>
    <vehicle id="396" depart="287.00">
        <route edges="E5 E4"/>
    </vehicle>
    <vehicle id="399" depart="289.00">
        <route edges="E1 E3"/>
    </vehicle>
    <vehicle id="400" depart="290.00">
        <route edges="-E4 -E5"/>
    </vehicle>
    <vehicle id="402" depart="292.00">
        <route edges="-E4 -E1"/>
    </vehicle>
    <vehicle id="403" depart="292.00">
        <route edges="E5 -E1"/>
    </vehicle>
    <vehicle id="405" depart="293.00">
        <route edges="E1 E3"/>
    </vehicle>
    <vehicle id="407" depart="295.00">
        <route edges="E1 -E5"/>
    </vehicle>
    <vehicle id="408" depart="296.00">
        <route edges="E1 E3"/>
    </vehicle>
    <vehicle id="411" depart="299.00">
        <route edges="-E4 E3"/>
    </vehicle>
    <vehicle id="412" depart="300.00">
        <route edges="E5 E4"/>
    </vehicle>
    <vehicle id="413" depart="301.00">
        <route edges="-E4 -E1"/>
    </vehicle>
    <vehicle id="414" depart="302.00">
        <route edges="E1 E4"/>
    </vehicle>
    <vehicle id="415" depart="303.00">
        <route edges="E5 E3"/>
    </vehicle>
    <vehicle id="416" depart="304.00">
        <route edges="E1 E4"/>
    </vehicle>
    <vehicle id="417" depart="306.00">
        <route edges="-E3 E4"/>
    </vehicle>
    <vehicle id="423" depart="311.00">
        <route edges="-E3 -E1"/>
    </vehicle>
    <vehicle id="424" depart="311.00">
        <route edges="-E4 -E5"/>
    </vehicle>
    <vehicle id="425" depart="311.00">
        <route edges="-E4 -E5"/>
    </vehicle>
    <vehicle id="426" depart="311.00">
        <route edges="-E3 -E1"/>
    </vehicle>
    <vehicle id="429" depart="313.00">
        <route edges="E1 -E5"/>
    </vehicle>
    <vehicle id="430" depart="314.00">
        <route edges="E5 -E1"/>
    </vehicle>
    <vehicle id="431" depart="314.00">
        <route edges="E1 -E5"/>
    </vehicle>
    <vehicle id="432" depart="314.00">
        <route edges="-E4 -E5"/>
    </vehicle>
    <vehicle id="433" depart="315.00">
        <route edges="E5 E4"/>
    </vehicle>
    <vehicle id="434" depart="316.00">
        <route edges="-E3 -E1"/>
    </vehicle>
    <vehicle id="435" depart="317.00">
        <route edges="E1 -E5"/>
    </vehicle>
    <vehicle id="436" depart="318.00">
        <route edges="E5 E4"/>
    </vehicle>
    <vehicle id="437" depart="318.00">
        <route edges="-E4 -E1"/>
    </vehicle>
    <vehicle id="438" depart="318.00">
        <route edges="E5 E4"/>
    </vehicle>
    <vehicle id="439" depart="319.00">
        <route edges="-E3 -E5"/>
    </vehicle>
    <vehicle id="440" depart="319.00">
        <route edges="E5 E4"/>
    </vehicle>
    <vehicle id="441" depart="320.00">
        <route edges="E5 -E1"/>
    </vehicle>
    <vehicle id="442" depart="321.00">
        <route edges="E1 E4"/>
    </vehicle>
    <vehicle id="443" depart="322.00">
        <route edges="E5 E4"/>
    </vehicle>
    <vehicle id="444" depart="322.00">
        <route edges="-E3 E4"/>
    </vehicle>
    <vehicle id="446" depart="323.00">
        <route edges="E5 E3"/>
    </vehicle>
    <vehicle id="447" depart="324.00">
        <route edges="-E4 E3"/>
    </vehicle>
    <vehicle id="449" depart="325.00">
        <route edges="-E4 E3"/>
    </vehicle>
    <vehicle id="451" depart="326.00">
        <route edges="-E3 -E5"/>
    </vehicle>
    <vehicle id="452" depart="326.00">
        <route edges="-E3 -E1"/>
    </vehicle>
    <vehicle id="456" depart="329.00">
        <route edges="E1 E4"/>
    </vehicle>
    <vehicle id="457" depart="329.00">
        <route edges="-E3 -E5"/>
    </vehicle>
    <vehicle id="458" depart="330.00">
        <route edges="-E4 -E5"/>
    </vehicle>
    <vehicle id="459" depart="331.00">
        <route edges="-E4 -E5"/>
    </vehicle>
    <vehicle id="460" depart="331.00">
        <route edges="E5 E4"/>
    </vehicle>
    <vehicle id="461" depart="331.00">
        <route edges="-E3 -E1"/>
    </vehicle>
    <vehicle id="462" depart="332.00">
        <route edges="E5 E3"/>
    </vehicle>