<?xml version="1.0" encoding="UTF-8"?>

<!-- generated on 2024-05-28 20:25:33 by Eclipse SUMO netedit Version 1.14.1
<configuration xmlns:xsi="http://www.w3.org/2001/XMLSchema-instance" xsi:noNamespaceSchemaLocation="http://sumo.dlr.de/xsd/netconvertConfiguration.xsd">

    <input>
        <sumo-net-file value="C:\Users\hecto\Sumo\Intel\osm.net.xml"/>
    </input>

    <output>
        <output-file value="C:\Users\hecto\Sumo\Intel\osm.net.xml"/>
    </output>

    <processing>
        <geometry.min-radius.fix.railways value="false"/>
        <geometry.max-grade.fix value="false"/>
        <offset.disable-normalization value="true"/>
        <lefthand value="false"/>
    </processing>

    <junctions>
        <no-turnarounds value="true"/>
        <junctions.corner-detail value="5"/>
        <junctions.limit-turn-speed value="5.5"/>
        <rectangular-lane-cut value="false"/>
    </junctions>

    <pedestrian>
        <walkingareas value="false"/>
    </pedestrian>

</configuration>
-->

<net version="1.9" junctionCornerDetail="5" limitTurnSpeed="5.50" xmlns:xsi="http://www.w3.org/2001/XMLSchema-instance" xsi:noNamespaceSchemaLocation="http://sumo.dlr.de/xsd/net_file.xsd">

    <location netOffset="0.00,0.00" convBoundary="-300.00,-300.00,300.00,300.28" origBoundary="-10000000000.00,-10000000000.00,10000000000.00,10000000000.00" projParameter="!"/>

    <edge id=":S1_0" function="internal">
        <lane id=":S1_0_0" index="0" speed="6.51" length="9.03" shape="-4.80,10.40 -5.15,7.95 -6.20,6.20 -7.95,5.15 -10.40,4.80"/>
        <lane id=":S1_0_1" index="1" speed="7.33" length="11.73" shape="-4.80,10.40 -5.15,6.55 -6.20,3.80 -7.95,2.15 -10.40,1.60"/>
    </edge>
    <edge id=":S1_2" function="internal">
        <lane id=":S1_2_0" index="0" speed="13.89" length="20.80" shape="-4.80,10.40 -4.80,-10.40"/>
    </edge>
    <edge id=":S1_3" function="internal">
        <lane id=":S1_3_0" index="0" speed="10.10" length="23.22" shape="-4.80,10.40 -3.43,5.00 0.11,0.11 5.00,-3.43 10.40,-4.80"/>
    </edge>
    <edge id=":S1_4" function="internal">
        <lane id=":S1_4_0" index="0" speed="13.89" length="20.80" shape="-1.60,10.40 -1.60,-10.40"/>
    </edge>
    <edge id=":S1_5" function="internal">
        <lane id=":S1_5_0" index="0" speed="9.02" length="18.33" shape="-1.60,10.40 -0.52,6.14 2.28,2.28 6.14,-0.52 10.40,-1.60"/>
    </edge>
    <edge id=":S1_6" function="internal">
        <lane id=":S1_6_0" index="0" speed="6.51" length="9.03" shape="10.40,4.80 7.95,5.15 6.20,6.20 5.15,7.95 4.80,10.40"/>
    </edge>
    <edge id=":S1_7" function="internal">
        <lane id=":S1_7_0" index="0" speed="13.89" length="20.80" shape="10.40,4.80 -10.40,4.80"/>
    </edge>
    <edge id=":S1_8" function="internal">
        <lane id=":S1_8_0" index="0" speed="10.10" length="23.22" shape="10.40,4.80 5.00,3.43 0.11,-0.11 -3.43,-5.00 -4.80,-10.40"/>
    </edge>
    <edge id=":S1_9" function="internal">
        <lane id=":S1_9_0" index="0" speed="13.89" length="20.80" shape="10.40,1.60 -10.40,1.60"/>
    </edge>
    <edge id=":S1_10" function="internal">
        <lane id=":S1_10_0" index="0" speed="9.02" length="18.33" shape="10.40,1.60 6.14,0.52 2.28,-2.28 -0.52,-6.14 -1.60,-10.40"/>
    </edge>
    <edge id=":S1_11" function="internal">
        <lane id=":S1_11_0" index="0" speed="6.51" length="9.03" shape="4.80,-10.40 5.15,-7.95 6.20,-6.20 7.95,-5.15 10.40,-4.80"/>
    </edge>
    <edge id=":S1_12" function="internal">
        <lane id=":S1_12_0" index="0" speed="13.89" length="20.80" shape="4.80,-10.40 4.80,10.40"/>
    </edge>
    <edge id=":S1_13" function="internal">
        <lane id=":S1_13_0" index="0" speed="10.10" length="23.22" shape="4.80,-10.40 3.43,-5.00 -0.11,-0.11 -5.00,3.43 -10.40,4.80"/>
    </edge>
    <edge id=":S1_14" function="internal">
        <lane id=":S1_14_0" index="0" speed="13.89" length="20.80" shape="1.60,-10.40 1.60,10.40"/>
    </edge>
    <edge id=":S1_15" function="internal">
        <lane id=":S1_15_0" index="0" speed="9.02" length="18.33" shape="1.60,-10.40 0.52,-6.14 -2.28,-2.28 -6.14,0.52 -10.40,1.60"/>
    </edge>
    <edge id=":S1_16" function="internal">
        <lane id=":S1_16_0" index="0" speed="6.51" length="9.03" shape="-10.40,-4.80 -7.95,-5.15 -6.20,-6.20 -5.15,-7.95 -4.80,-10.40"/>
    </edge>
    <edge id=":S1_17" function="internal">
        <lane id=":S1_17_0" index="0" speed="13.89" length="20.80" shape="-10.40,-4.80 10.40,-4.80"/>
    </edge>
    <edge id=":S1_18" function="internal">
        <lane id=":S1_18_0" index="0" speed="8.00" length="4.07" shape="-10.40,-1.60 -6.55,-2.15 -6.40,-2.24"/>
    </edge>
    <edge id=":S1_19" function="internal">
        <lane id=":S1_19_0" index="0" speed="13.89" length="20.80" shape="-10.40,-1.60 10.40,-1.60"/>
    </edge>
    <edge id=":S1_20" function="internal">
        <lane id=":S1_20_0" index="0" speed="9.02" length="18.33" shape="-10.40,-1.60 -6.14,-0.52 -2.28,2.28 0.52,6.14 1.60,10.40"/>
    </edge>
    <edge id=":S1_21" function="internal">
        <lane id=":S1_21_0" index="0" speed="8.00" length="10.13" shape="-6.40,-2.24 -3.80,-3.80 -2.15,-6.55 -1.60,-10.40"/>
    </edge>

    <edge id="-E1" from="S1" to="A3" priority="-1" spreadType="roadCenter">
        <lane id="-E1_0" index="0" speed="13.89" length="289.60" shape="-10.40,4.80 -300.00,4.80"/>
        <lane id="-E1_1" index="1" speed="13.89" length="289.60" shape="-10.40,1.60 -300.00,1.60"/>
    </edge>
    <edge id="-E3" from="A0" to="S1" priority="-1" spreadType="center" shape="-3.19,300.28 -3.20,0.13">
        <lane id="-E3_0" index="0" speed="13.89" length="289.60" shape="-4.79,300.00 -4.80,10.40"/>
        <lane id="-E3_1" index="1" speed="13.89" length="289.60" shape="-1.59,300.00 -1.60,10.40"/>
    </edge>
    <edge id="-E4" from="A2" to="S1" priority="-1" spreadType="roadCenter">
        <lane id="-E4_0" index="0" speed="13.89" length="289.60" shape="4.80,-300.00 4.80,-10.40"/>
        <lane id="-E4_1" index="1" speed="13.89" length="289.60" shape="1.60,-300.00 1.60,-10.40"/>
    </edge>
    <edge id="-E5" from="S1" to="A1" priority="-1" spreadType="roadCenter">
        <lane id="-E5_0" index="0" speed="13.89" length="289.60" shape="10.40,-4.80 300.00,-4.80"/>
        <lane id="-E5_1" index="1" speed="13.89" length="289.60" shape="10.40,-1.60 300.00,-1.60"/>
    </edge>
    <edge id="E1" from="A3" to="S1" priority="-1" spreadType="center" shape="-299.95,-3.20 0.10,-3.20">
        <lane id="E1_0" index="0" speed="13.89" length="289.60" shape="-300.00,-4.80 -10.40,-4.80"/>
        <lane id="E1_1" index="1" speed="13.89" length="289.60" shape="-300.00,-1.60 -10.40,-1.60"/>
    </edge>
    <edge id="E3" from="S1" to="A0" priority="-1">
        <lane id="E3_0" index="0" speed="13.89" length="289.60" shape="4.80,10.40 4.80,300.00"/>
        <lane id="E3_1" index="1" speed="13.89" length="289.60" shape="1.60,10.40 1.60,300.00"/>
    </edge>
    <edge id="E4" from="S1" to="A2" priority="-1">
        <lane id="E4_0" index="0" speed="13.89" length="289.60" shape="-4.80,-10.40 -4.80,-300.00"/>
        <lane id="E4_1" index="1" speed="13.89" length="289.60" shape="-1.60,-10.40 -1.60,-300.00"/>
    </edge>
    <edge id="E5" from="A1" to="S1" priority="-1">
        <lane id="E5_0" index="0" speed="13.89" length="289.60" shape="300.00,4.80 10.40,4.80"/>
        <lane id="E5_1" index="1" speed="13.89" length="289.60" shape="300.00,1.60 10.40,1.60"/>
    </edge>

    <tlLogic id="S1" type="static" programID="0" offset="0">
        <phase duration="42" state="rrGgrrrr"/>
        <phase duration="5"  state="rryyrrrr"/>
        <phase duration="42" state="rrrrGgrr"/>
        <phase duration="5"  state="rrrryyrr"/>
        <phase duration="42" state="rrrrrrGg"/>
        <phase duration="5"  state="rrrrrryy"/>
        <phase duration="42" state="Ggrrrrrr"/>
        <phase duration="5"  state="yyrrrrrr"/>
    </tlLogic>

    <junction id="A0" type="dead_end" x="0.00" y="300.00" incLanes="E3_0 E3_1" intLanes="" shape="0.01,300.00 6.40,300.00 0.00,300.00"/>
    <junction id="A1" type="dead_end" x="300.00" y="0.00" incLanes="-E5_0 -E5_1" intLanes="" shape="300.00,0.00 300.00,-6.40 300.00,0.00"/>
    <junction id="A2" type="dead_end" x="0.00" y="-300.00" incLanes="E4_0 E4_1" intLanes="" shape="0.00,-300.00 -6.40,-300.00 0.00,-300.00"/>
    <junction id="A3" type="dead_end" x="-300.00" y="0.00" incLanes="-E1_0 -E1_1" intLanes="" shape="-300.00,0.00 -300.00,6.40 -300.00,0.00"/>
    <junction id="S1" type="traffic_light" x="0.00" y="0.00" incLanes="-E3_0 -E3_1 E5_0 E5_1 -E4_0 -E4_1 E1_0 E1_1" intLanes=":S1_0_0 :S1_0_1 :S1_2_0 :S1_3_0 :S1_4_0 :S1_5_0 :S1_6_0 :S1_7_0 :S1_8_0 :S1_9_0 :S1_10_0 :S1_11_0 :S1_12_0 :S1_13_0 :S1_14_0 :S1_15_0 :S1_16_0 :S1_17_0 :S1_21_0 :S1_19_0 :S1_20_0" shape="-6.40,10.40 6.40,10.40 6.84,8.18 7.40,7.40 8.18,6.84 9.18,6.51 10.40,6.40 10.40,-6.40 8.18,-6.84 7.40,-7.40 6.84,-8.18 6.51,-9.18 6.40,-10.40 -6.40,-10.40 -6.84,-8.18 -7.40,-7.40 -8.18,-6.84 -9.18,-6.51 -10.40,-6.40 -10.40,6.40 -8.18,6.84 -7.40,7.40 -6.84,8.18 -6.51,9.18">
        <request index="0"  response="000000000001010000000" foes="000001010001010000000" cont="0"/>
        <request index="1"  response="000000000001010000000" foes="000001010001010000000" cont="0"/>
        <request index="2"  response="111110000011110000000" foes="111111010011110000000" cont="0"/>
        <request index="3"  response="110100111111110010000" foes="110100111111110010000" cont="0"/>
        <request index="4"  response="111110000011110000000" foes="111111010011110001000" cont="0"/>
        <request index="5"  response="110100101111110000000" foes="110100101111110000000" cont="0"/>
        <request index="6"  response="000000000000000000000" foes="000000101000000000000" cont="0"/>
        <request index="7"  response="000000000000000000000" foes="100001111000000111111" cont="0"/>
        <request index="8"  response="011110000001000000000" foes="011111111001000111100" cont="0"/>
        <request index="9"  response="000000000000000000000" foes="100001111000100111111" cont="0"/>
        <request index="10" response="011110000000000000000" foes="011111111000000111100" cont="0"/>
        <request index="11" response="010100000000000000000" foes="010100000000000101000" cont="0"/>
        <request index="12" response="110100000011111000000" foes="110100000011111101000" cont="0"/>
        <request index="13" response="110100100011110010111" foes="110100100011110011111" cont="0"/>
        <request index="14" response="110100000011111000000" foes="110100010011111101000" cont="0"/>
        <request index="15" response="110100000011110010111" foes="110100000011110010111" cont="0"/>
        <request index="16" response="000000000000000000000" foes="000000000010100010100" cont="0"/>
        <request index="17" response="000000000000000000000" foes="001001111110100111100" cont="0"/>
        <request index="18" response="000100000000000000000" foes="000100000010100010100" cont="1"/>
        <request index="19" response="000000000000000000000" foes="000001111110100111100" cont="0"/>
        <request index="20" response="000000000001010000000" foes="000001111001010111100" cont="0"/>
    </junction>

    <junction id=":S1_21_0" type="internal" x="-6.40" y="-2.24" incLanes=":S1_18_0 E1_0" intLanes=":S1_2_0 :S1_4_0 :S1_8_0 :S1_10_0 :S1_17_0"/>

    <connection from="-E3" to="-E1" fromLane="0" toLane="0" via=":S1_0_0" tl="S1" linkIndex="0" dir="r" state="o"/>
    <connection from="-E3" to="-E1" fromLane="0" toLane="1" via=":S1_0_1" tl="S1" linkIndex="0" dir="r" state="o"/>
    <connection from="-E3" to="E4" fromLane="0" toLane="0" via=":S1_2_0" tl="S1" linkIndex="0" dir="s" state="o"/>
    <connection from="-E3" to="-E5" fromLane="0" toLane="0" via=":S1_3_0" tl="S1" linkIndex="1" dir="l" state="o"/>
    <connection from="-E3" to="E4" fromLane="1" toLane="1" via=":S1_4_0" tl="S1" linkIndex="0" dir="s" state="o"/>
    <connection from="-E3" to="-E5" fromLane="1" toLane="1" via=":S1_5_0" tl="S1" linkIndex="1" dir="l" state="o"/>
    <connection from="-E4" to="-E5" fromLane="0" toLane="0" via=":S1_11_0" tl="S1" linkIndex="4" dir="r" state="o"/>
    <connection from="-E4" to="E3" fromLane="0" toLane="0" via=":S1_12_0" tl="S1" linkIndex="4" dir="s" state="o"/>
    <connection from="-E4" to="-E1" fromLane="0" toLane="0" via=":S1_13_0" tl="S1" linkIndex="5" dir="l" state="o"/>
    <connection from="-E4" to="E3" fromLane="1" toLane="1" via=":S1_14_0" tl="S1" linkIndex="4" dir="s" state="o"/>
    <connection from="-E4" to="-E1" fromLane="1" toLane="1" via=":S1_15_0" tl="S1" linkIndex="5" dir="l" state="o"/>
    <connection from="E1" to="E4" fromLane="0" toLane="0" via=":S1_16_0" tl="S1" linkIndex="6" dir="r" state="O"/>
    <connection from="E1" to="-E5" fromLane="0" toLane="0" via=":S1_17_0" tl="S1" linkIndex="6" dir="s" state="O"/>
    <connection from="E1" to="E4" fromLane="1" toLane="1" via=":S1_18_0" tl="S1" linkIndex="7" dir="r" state="o"/>
    <connection from="E1" to="-E5" fromLane="1" toLane="1" via=":S1_19_0" tl="S1" linkIndex="6" dir="s" state="O"/>
    <connection from="E1" to="E3" fromLane="1" toLane="1" via=":S1_20_0" tl="S1" linkIndex="7" dir="l" state="o"/>
    <connection from="E5" to="E3" fromLane="0" toLane="0" via=":S1_6_0" tl="S1" linkIndex="2" dir="r" state="O"/>
    <connection from="E5" to="-E1" fromLane="0" toLane="0" via=":S1_7_0" tl="S1" linkIndex="2" dir="s" state="O"/>
    <connection from="E5" to="E4" fromLane="0" toLane="0" via=":S1_8_0" tl="S1" linkIndex="3" dir="l" state="o"/>
    <connection from="E5" to="-E1" fromLane="1" toLane="1" via=":S1_9_0" tl="S1" linkIndex="2" dir="s" state="O"/>
    <connection from="E5" to="E4" fromLane="1" toLane="1" via=":S1_10_0" tl="S1" linkIndex="3" dir="l" state="o"/>

    <connection from=":S1_0" to="-E1" fromLane="0" toLane="0" dir="r" state="M"/>
    <connection from=":S1_0" to="-E1" fromLane="1" toLane="1" dir="r" state="M"/>
    <connection from=":S1_2" to="E4" fromLane="0" toLane="0" dir="s" state="M"/>
    <connection from=":S1_3" to="-E5" fromLane="0" toLane="0" dir="l" state="M"/>
    <connection from=":S1_4" to="E4" fromLane="0" toLane="1" dir="s" state="M"/>
    <connection from=":S1_5" to="-E5" fromLane="0" toLane="1" dir="l" state="M"/>
    <connection from=":S1_6" to="E3" fromLane="0" toLane="0" dir="r" state="M"/>
    <connection from=":S1_7" to="-E1" fromLane="0" toLane="0" dir="s" state="M"/>
    <connection from=":S1_8" to="E4" fromLane="0" toLane="0" dir="l" state="M"/>
    <connection from=":S1_9" to="-E1" fromLane="0" toLane="1" dir="s" state="M"/>
    <connection from=":S1_10" to="E4" fromLane="0" toLane="1" dir="l" state="M"/>
    <connection from=":S1_11" to="-E5" fromLane="0" toLane="0" dir="r" state="M"/>
    <connection from=":S1_12" to="E3" fromLane="0" toLane="0" dir="s" state="M"/>
    <connection from=":S1_13" to="-E1" fromLane="0" toLane="0" dir="l" state="M"/>
    <connection from=":S1_14" to="E3" fromLane="0" toLane="1" dir="s" state="M"/>
    <connection from=":S1_15" to="-E1" fromLane="0" toLane="1" dir="l" state="M"/>
    <connection from=":S1_16" to="E4" fromLane="0" toLane="0" dir="r" state="M"/>
    <connection from=":S1_17" to="-E5" fromLane="0" toLane="0" dir="s" state="M"/>
    <connection from=":S1_18" to="E4" fromLane="0" toLane="1" via=":S1_21_0" dir="r" state="m"/>
    <connection from=":S1_21" to="E4" fromLane="0" toLane="1" dir="r" state="M"/>
    <connection from=":S1_19" to="-E5" fromLane="0" toLane="1" dir="s" state="M"/>
    <connection from=":S1_20" to="E3" fromLane="0" toLane="1" dir="l" state="M"/>

</net>
