<?xml version="1.0" encoding="UTF-8"?>

<!-- generated on 2024-06-02 22:11:12.933553 by randomTrips.py v1_20_0+0002-343658e7c64
<configuration>
    <net-file value="osm.net.xml"/>
    <output-trip-file value="osm.passenger.trips.xml"/>
    <route-file value="osm.passenger.rou.xml"/>
    <lanes value="True"/>
    <seed value="900"/>
    <validate value="True"/>
    <end value="1000.0"/>
    <period value="0.7"/>
    <binomial value="4"/>
</configuration>
-->

<!-- generated on 2024-06-02 22:11:12 by Eclipse SUMO duarouter Version 1.20.0
<configuration xmlns:xsi="http://www.w3.org/2001/XMLSchema-instance" xsi:noNamespaceSchemaLocation="http://sumo.dlr.de/xsd/duarouterConfiguration.xsd">

    <input>
        <net-file value="osm.net.xml"/>
        <route-files value="osm.passenger.trips.xml"/>
    </input>

    <output>
        <output-file value="osm.passenger.rou.xml"/>
        <alternatives-output value="NUL"/>
    </output>

    <time>
        <begin value="0"/>
        <end value="1000.0"/>
    </time>

    <report>
        <no-warnings value="true"/>
        <ignore-errors value="true"/>
        <no-step-log value="true"/>
    </report>

</configuration>
-->

<routes xmlns:xsi="http://www.w3.org/2001/XMLSchema-instance" xsi:noNamespaceSchemaLocation="http://sumo.dlr.de/xsd/routes_file.xsd">
    <vehicle id="0" depart="0.00">
        <route edges="E5 E3"/>
    </vehicle>
    <vehicle id="1" depart="1.00">
        <route edges="-E4 E3"/>
    </vehicle>
    <vehicle id="2" depart="2.00">
        <route edges="-E4 E3"/>
    </vehicle>
    <vehicle id="3" depart="2.00">
        <route edges="E1 -E5"/>
    </vehicle>
    <vehicle id="4" depart="3.00">
        <route edges="-E3 -E5"/>
    </vehicle>
    <vehicle id="5" depart="3.00">
        <route edges="E5 E3"/>
    </vehicle>
    <vehicle id="6" depart="3.00">
        <route edges="E1 E4"/>
    </vehicle>
    <vehicle id="7" depart="3.00">
        <route edges="-E4 -E1"/>
    </vehicle>
    <vehicle id="8" depart="4.00">
        <route edges="-E3 E4"/>
    </vehicle>
    <vehicle id="9" depart="4.00">
        <route edges="E1 E4"/>
    </vehicle>
    <vehicle id="11" depart="4.00">
        <route edges="E1 E3"/>
    </vehicle>
    <vehicle id="13" depart="7.00">
        <route edges="-E3 -E5"/>
    </vehicle>
    <vehicle id="15" depart="8.00">
        <route edges="-E3 -E1"/>
    </vehicle>
    <vehicle id="16" depart="8.00">
        <route edges="E1 E4"/>
    </vehicle>
    <vehicle id="18" depart="10.00">
        <route edges="-E3 E4"/>
    </vehicle>
    <vehicle id="19" depart="11.00">
        <route edges="-E3 -E5"/>
    </vehicle>
    <vehicle id="20" depart="11.00">
        <route edges="E1 E4"/>
    </vehicle>
    <vehicle id="21" depart="13.00">
        <route edges="E5 E3"/>
    </vehicle>
    <vehicle id="23" depart="13.00">
        <route edges="E1 E3"/>
    </vehicle>
    <vehicle id="24" depart="14.00">
        <route edges="E1 E4"/>
    </vehicle>
    <vehicle id="25" depart="14.00">
        <route edges="E1 E4"/>
    </vehicle>
    <vehicle id="26" depart="15.00">
        <route edges="-E3 -E1"/>
    </vehicle>
    <vehicle id="27" depart="15.00">
        <route edges="-E4 -E1"/>
    </vehicle>
    <vehicle id="28" depart="16.00">
        <route edges="-E3 -E1"/>
    </vehicle>
    <vehicle id="29" depart="17.00">
        <route edges="E5 -E1"/>
    </vehicle>
    <vehicle id="30" depart="18.00">
        <route edges="-E3 -E1"/>
    </vehicle>
    <vehicle id="31" depart="18.00">
        <route edges="E1 E3"/>
    </vehicle>
    <vehicle id="32" depart="20.00">
        <route edges="E5 -E1"/>
    </vehicle>
    <vehicle id="33" depart="20.00">
        <route edges="-E3 -E5"/>
    </vehicle>
    <vehicle id="37" depart="23.00">
        <route edges="-E3 -E5"/>
    </vehicle>
    <vehicle id="38" depart="23.00">
        <route edges="E5 E4"/>
    </vehicle>
    <vehicle id="41" depart="25.00">
        <route edges="-E4 -E5"/>
    </vehicle>
    <vehicle id="43" depart="27.00">
        <route edges="-E3 -E1"/>
    </vehicle>
    <vehicle id="44" depart="27.00">
        <route edges="E1 E4"/>
    </vehicle>
    <vehicle id="45" depart="28.00">
        <route edges="-E3 -E1"/>
    </vehicle>
    <vehicle id="46" depart="30.00">
        <route edges="E1 E3"/>
    </vehicle>
    <vehicle id="47" depart="30.00">
        <route edges="-E3 -E1"/>
    </vehicle>
    <vehicle id="50" depart="32.00">
        <route edges="-E4 E3"/>
    </vehicle>
    <vehicle id="52" depart="32.00">
        <route edges="E1 E3"/>
    </vehicle>
    <vehicle id="56" depart="38.00">
        <route edges="E5 E4"/>
    </vehicle>
    <vehicle id="57" depart="38.00">
        <route edges="E5 E3"/>
    </vehicle>
    <vehicle id="58" depart="39.00">
        <route edges="E5 -E1"/>
    </vehicle>
    <vehicle id="62" depart="44.00">
        <route edges="-E4 -E5"/>
    </vehicle>
    <vehicle id="64" depart="46.00">
        <route edges="-E3 -E5"/>
    </vehicle>
    <vehicle id="65" depart="46.00">
        <route edges="-E4 -E5"/>
    </vehicle>
    <vehicle id="67" depart="48.00">
        <route edges="-E3 E4"/>
    </vehicle>
    <vehicle id="68" depart="49.00">
        <route edges="-E4 -E5"/>
    </vehicle>
    <vehicle id="70" depart="50.00">
        <route edges="E1 -E5"/>
    </vehicle>
    <vehicle id="71" depart="51.00">
        <route edges="-E4 E3"/>
    </vehicle>
    <vehicle id="72" depart="52.00">
        <route edges="E1 E3"/>
    </vehicle>
    <vehicle id="74" depart="53.00">
        <route edges="-E3 E4"/>
    </vehicle>
    <vehicle id="75" depart="53.00">
        <route edges="E5 E3"/>
    </vehicle>
    <vehicle id="76" depart="54.00">
        <route edges="-E3 -E5"/>
    </vehicle>
    <vehicle id="77" depart="55.00">
        <route edges="E1 -E5"/>
    </vehicle>
    <vehicle id="78" depart="55.00">
        <route edges="-E3 -E5"/>
    </vehicle>
    <vehicle id="79" depart="57.00">
        <route edges="E1 -E5"/>
    </vehicle>
    <vehicle id="81" depart="58.00">
        <route edges="E1 E3"/>
    </vehicle>
    <vehicle id="83" depart="59.00">
        <route edges="-E3 -E1"/>
    </vehicle>
    <vehicle id="84" depart="60.00">
        <route edges="-E4 -E5"/>
    </vehicle>
    <vehicle id="85" depart="61.00">
        <route edges="-E4 E3"/>
    </vehicle>
    <vehicle id="86" depart="61.00">
        <route edges="E5 -E1"/>
    </vehicle>
    <vehicle id="87" depart="61.00">
        <route edges="-E3 -E1"/>
    </vehicle>
    <vehicle id="88" depart="61.00">
        <route edges="-E4 -E1"/>
    </vehicle>
    <vehicle id="90" depart="62.00">
        <route edges="E1 -E5"/>
    </vehicle>
    <vehicle id="91" depart="63.00">
        <route edges="-E4 -E5"/>
    </vehicle>
    <vehicle id="93" depart="65.00">
        <route edges="-E4 -E5"/>
    </vehicle>
    <vehicle id="94" depart="66.00">
        <route edges="E5 -E1"/>
    </vehicle>
    <vehicle id="95" depart="67.00">
        <route edges="E5 E3"/>
    </vehicle>
    <vehicle id="96" depart="67.00">
        <route edges="-E3 -E5"/>
    </vehicle>
    <vehicle id="97" depart="68.00">
        <route edges="E5 E3"/>
    </vehicle>
    <vehicle id="99" depart="69.00">
        <route edges="E1 E3"/>
    </vehicle>
    <vehicle id="100" depart="69.00">
        <route edges="E5 E3"/>
    </vehicle>
    <vehicle id="101" depart="70.00">
        <route edges="-E4 -E1"/>
    </vehicle>
    <vehicle id="102" depart="70.00">
        <route edges="-E4 -E5"/>
    </vehicle>
    <vehicle id="103" depart="70.00">
        <route edges="E5 -E1"/>
    </vehicle>
    <vehicle id="104" depart="71.00">
        <route edges="-E3 -E1"/>
    </vehicle>
    <vehicle id="105" depart="72.00">
        <route edges="-E4 E3"/>
    </vehicle>
    <vehicle id="106" depart="75.00">
        <route edges="E5 E3"/>
    </vehicle>
    <vehicle id="107" depart="75.00">
        <route edges="-E4 -E1"/>
    </vehicle>
    <vehicle id="108" depart="76.00">
        <route edges="-E4 -E1"/>
    </vehicle>
    <vehicle id="109" depart="76.00">
        <route edges="E5 E3"/>
    </vehicle>
    <vehicle id="110" depart="77.00">
        <route edges="-E3 E4"/>
    </vehicle>
    <vehicle id="111" depart="77.00">
        <route edges="-E3 -E5"/>
    </vehicle>
    <vehicle id="112" depart="77.00">
        <route edges="-E4 -E5"/>
    </vehicle>
    <vehicle id="114" depart="80.00">
        <route edges="E1 E3"/>
    </vehicle>
    <vehicle id="115" depart="80.00">
        <route edges="E5 E4"/>
    </vehicle>
    <vehicle id="116" depart="80.00">
        <route edges="-E3 -E1"/>
    </vehicle>
    <vehicle id="117" depart="81.00">
        <route edges="E1 E4"/>
    </vehicle>
    <vehicle id="119" depart="82.00">
        <route edges="-E4 -E1"/>
    </vehicle>
    <vehicle id="120" depart="82.00">
        <route edges="E5 E3"/>
    </vehicle>
    <vehicle id="123" depart="85.00">
        <route edges="-E4 -E5"/>
    </vehicle>
    <vehicle id="124" depart="85.00">
        <route edges="-E3 -E5"/>
    </vehicle>
    <vehicle id="126" depart="86.00">
        <route edges="-E4 -E1"/>
    </vehicle>
    <vehicle id="127" depart="88.00">
        <route edges="-E4 -E1"/>
    </vehicle>
    <vehicle id="128" depart="88.00">
        <route edges="E5 E3"/>
    </vehicle>
    <vehicle id="129" depart="88.00">
        <route edges="E5 E4"/>
    </vehicle>
    <vehicle id="131" depart="89.00">
        <route edges="-E3 -E1"/>
    </vehicle>
    <vehicle id="132" depart="89.00">
        <route edges="E5 -E1"/>
    </vehicle>
    <vehicle id="133" depart="90.00">
        <route edges="E1 -E5"/>
    </vehicle>
    <vehicle id="134" depart="92.00">
        <route edges="-E4 -E5"/>
    </vehicle>
    <vehicle id="135" depart="93.00">
        <route edges="E5 E4"/>
    </vehicle>
    <vehicle id="137" depart="94.00">
        <route edges="-E4 -E5"/>
    </vehicle>
    <vehicle id="139" depart="96.00">
        <route edges="-E3 -E5"/>
    </vehicle>
    <vehicle id="140" depart="96.00">
        <route edges="-E4 -E1"/>
    </vehicle>
    <vehicle id="142" depart="97.00">
        <route edges="-E4 E3"/>
    </vehicle>
    <vehicle id="143" depart="98.00">
        <route edges="-E3 E4"/>
    </vehicle>
    <vehicle id="144" depart="99.00">
        <route edges="E1 E4"/>
    </vehicle>
    <vehicle id="145" depart="99.00">
        <route edges="-E3 -E5"/>
    </vehicle>
    <vehicle id="147" depart="100.00">
        <route edges="E5 E3"/>
    </vehicle>
    <vehicle id="148" depart="100.00">
        <route edges="-E3 -E5"/>
    </vehicle>
    <vehicle id="149" depart="100.00">
        <route edges="-E3 -E1"/>
    </vehicle>
    <vehicle id="150" depart="104.00">
        <route edges="-E3 -E1"/>
    </vehicle>
    <vehicle id="151" depart="105.00">
        <route edges="E5 E3"/>
    </vehicle>
    <vehicle id="152" depart="105.00">
        <route edges="-E3 E4"/>
    </vehicle>
    <vehicle id="154" depart="106.00">
        <route edges="E1 E4"/>
    </vehicle>
    <vehicle id="155" depart="107.00">
        <route edges="-E3 -E5"/>
    </vehicle>
    <vehicle id="156" depart="107.00">
        <route edges="E5 E4"/>
    </vehicle>
    <vehicle id="161" depart="110.00">
        <route edges="E1 -E5"/>
    </vehicle>
    <vehicle id="162" depart="110.00">
        <route edges="-E3 -E5"/>
    </vehicle>
    <vehicle id="163" depart="110.00">
        <route edges="-E3 E4"/>
    </vehicle>
    <vehicle id="164" depart="111.00">
        <route edges="-E4 E3"/>
    </vehicle>
    <vehicle id="165" depart="111.00">
        <route edges="E5 -E1"/>
    </vehicle>
    <vehicle id="166" depart="112.00">
        <route edges="E5 E4"/>
    </vehicle>
    <vehicle id="167" depart="112.00">
        <route edges="E1 E3"/>
    </vehicle>
    <vehicle id="168" depart="112.00">
        <route edges="-E4 -E5"/>
    </vehicle>
    <vehicle id="170" depart="113.00">
        <route edges="-E4 -E1"/>
    </vehicle>
    <vehicle id="171" depart="114.00">
        <route edges="-E4 -E1"/>
    </vehicle>
    <vehicle id="172" depart="115.00">
        <route edges="E5 E3"/>
    </vehicle>
    <vehicle id="173" depart="115.00">
        <route edges="E1 E3"/>
    </vehicle>
    <vehicle id="174" depart="116.00">
        <route edges="E5 -E1"/>
    </vehicle>
    <vehicle id="175" depart="117.00">
        <route edges="E5 E4"/>
    </vehicle>
    <vehicle id="176" depart="117.00">
        <route edges="-E3 -E5"/>
    </vehicle>
    <vehicle id="178" depart="118.00">
        <route edges="-E3 -E5"/>
    </vehicle>
    <vehicle id="179" depart="118.00">
        <route edges="E5 E4"/>
    </vehicle>
    <vehicle id="181" depart="120.00">
        <route edges="E5 E4"/>
    </vehicle>
    <vehicle id="182" depart="122.00">
        <route edges="-E3 -E5"/>
    </vehicle>
    <vehicle id="184" depart="124.00">
        <route edges="E1 E3"/>
    </vehicle>
    <vehicle id="185" depart="124.00">
        <route edges="-E3 -E5"/>
    </vehicle>
    <vehicle id="186" depart="125.00">
        <route edges="E1 -E5"/>
    </vehicle>
    <vehicle id="187" depart="127.00">
        <route edges="E5 -E1"/>
    </vehicle>
    <vehicle id="189" depart="127.00">
        <route edges="E1 E3"/>
    </vehicle>
    <vehicle id="190" depart="128.00">
        <route edges="E1 E4"/>
    </vehicle>
    <vehicle id="191" depart="129.00">
        <route edges="-E4 E3"/>
    </vehicle>
    <vehicle id="192" depart="129.00">
        <route edges="-E3 -E5"/>
    </vehicle>
    <vehicle id="193" depart="129.00">
        <route edges="E1 E3"/>
    </vehicle>
    <vehicle id="195" depart="130.00">
        <route edges="E1 -E5"/>
    </vehicle>
    <vehicle id="196" depart="131.00">
        <route edges="E5 -E1"/>
    </vehicle>
    <vehicle id="197" depart="131.00">
        <route edges="-E4 E3"/>
    </vehicle>
    <vehicle id="198" depart="133.00">
        <route edges="E1 E3"/>
    </vehicle>
    <vehicle id="199" depart="134.00">
        <route edges="E1 E4"/>
    </vehicle>
    <vehicle id="200" depart="135.00">
        <route edges="-E3 -E5"/>
    </vehicle>
    <vehicle id="201" depart="137.00">
        <route edges="E5 E4"/>
    </vehicle>
    <vehicle id="202" depart="137.00">
        <route edges="-E4 -E5"/>
    </vehicle>
    <vehicle id="204" depart="140.00">
        <route edges="E5 -E1"/>
    </vehicle>
    <vehicle id="205" depart="142.00">
        <route edges="-E3 E4"/>
    </vehicle>
    <vehicle id="206" depart="142.00">
        <route edges="E1 -E5"/>
    </vehicle>
    <vehicle id="207" depart="143.00">
        <route edges="-E3 E4"/>
    </vehicle>
    <vehicle id="208" depart="144.00">
        <route edges="E1 -E5"/>
    </vehicle>
    <vehicle id="209" depart="145.00">
        <route edges="E1 E4"/>
    </vehicle>
    <vehicle id="210" depart="145.00">
        <route edges="-E4 -E5"/>
    </vehicle>
    <vehicle id="211" depart="146.00">
        <route edges="E5 E3"/>
    </vehicle>
    <vehicle id="213" depart="147.00">
        <route edges="E1 -E5"/>
    </vehicle>
    <vehicle id="216" depart="149.00">
        <route edges="E5 E3"/>
    </vehicle>
    <vehicle id="217" depart="149.00">
        <route edges="E1 E4"/>
    </vehicle>
    <vehicle id="219" depart="150.00">
        <route edges="-E3 -E5"/>
    </vehicle>
    <vehicle id="221" depart="151.00">
        <route edges="-E3 E4"/>
    </vehicle>
    <vehicle id="222" depart="152.00">
        <route edges="-E4 E3"/>
    </vehicle>
    <vehicle id="223" depart="152.00">
        <route edges="-E4 -E5"/>
    </vehicle>
    <vehicle id="224" depart="153.00">
        <route edges="-E4 -E5"/>
    </vehicle>
    <vehicle id="225" depart="153.00">
        <route edges="E1 E3"/>
    </vehicle>
    <vehicle id="227" depart="153.00">
        <route edges="-E3 -E5"/>
    </vehicle>
    <vehicle id="228" depart="154.00">
        <route edges="-E3 -E5"/>
    </vehicle>
    <vehicle id="229" depart="154.00">
        <route edges="-E3 -E1"/>
    </vehicle>
    <vehicle id="232" depart="156.00">
        <route edges="-E4 -E1"/>
    </vehicle>
    <vehicle id="234" depart="158.00">
        <route edges="E1 E4"/>
    </vehicle>
    <vehicle id="235" depart="159.00">
        <route edges="E5 E4"/>
    </vehicle>
    <vehicle id="236" depart="159.00">
        <route edges="-E4 -E1"/>
    </vehicle>
    <vehicle id="237" depart="160.00">
        <route edges="-E3 -E1"/>
    </vehicle>
    <vehicle id="238" depart="161.00">
        <route edges="-E3 E4"/>
    </vehicle>
    <vehicle id="242" depart="165.00">
        <route edges="-E3 -E1"/>
    </vehicle>
    <vehicle id="243" depart="165.00">
        <route edges="-E3 -E5"/>
    </vehicle>
    <vehicle id="246" depart="166.00">
        <route edges="-E4 E3"/>
    </vehicle>
    <vehicle id="248" depart="167.00">
        <route edges="-E3 -E1"/>
    </vehicle>
    <vehicle id="249" depart="167.00">
        <route edges="E1 E3"/>
    </vehicle>
    <vehicle id="250" depart="168.00">
        <route edges="E1 E3"/>
    </vehicle>
    <vehicle id="254" depart="171.00">
        <route edges="E5 E4"/>
    </vehicle>
    <vehicle id="255" depart="172.00">
        <route edges="E5 E3"/>
    </vehicle>
    <vehicle id="257" depart="173.00">
        <route edges="-E4 E3"/>
    </vehicle>
    <vehicle id="261" depart="175.00">
        <route edges="E5 -E1"/>
    </vehicle>
    <vehicle id="262" depart="176.00">
        <route edges="E1 E4"/>
    </vehicle>
    <vehicle id="263" depart="177.00">
        <route edges="-E4 -E5"/>
    </vehicle>
    <vehicle id="264" depart="177.00">
        <route edges="E1 E3"/>
    </vehicle>
    <vehicle id="267" depart="179.00">
        <route edges="-E3 E4"/>
    </vehicle>
    <vehicle id="268" depart="179.00">
        <route edges="-E3 E4"/>
    </vehicle>
    <vehicle id="269" depart="180.00">
        <route edges="-E4 -E5"/>
    </vehicle>
    <vehicle id="270" depart="181.00">
        <route edges="-E4 -E1"/>
    </vehicle>
    <vehicle id="272" depart="183.00">
        <route edges="E5 -E1"/>
    </vehicle>
    <vehicle id="274" depart="184.00">
        <route edges="E1 -E5"/>
    </vehicle>
    <vehicle id="275" depart="185.00">
        <route edges="-E3 -E1"/>
    </vehicle>
    <vehicle id="276" depart="185.00">
        <route edges="-E4 E3"/>
    </vehicle>
    <vehicle id="279" depart="187.00">
        <route edges="E1 E3"/>
    </vehicle>
    <vehicle id="280" depart="188.00">
        <route edges="E1 E4"/>
    </vehicle>
    <vehicle id="281" depart="189.00">
        <route edges="-E3 E4"/>
    </vehicle>
    <vehicle id="282" depart="189.00">
        <route edges="-E4 -E5"/>
    </vehicle>
    <vehicle id="284" depart="190.00">
        <route edges="-E4 E3"/>
    </vehicle>
    <vehicle id="285" depart="191.00">
        <route edges="E5 E3"/>
    </vehicle>
    <vehicle id="287" depart="192.00">
        <route edges="-E3 E4"/>
    </vehicle>
    <vehicle id="291" depart="194.00">
        <route edges="-E4 -E1"/>
    </vehicle>
    <vehicle id="292" depart="194.00">
        <route edges="-E4 E3"/>
    </vehicle>
    <vehicle id="293" depart="198.00">
        <route edges="E1 E3"/>
    </vehicle>
    <vehicle id="294" depart="198.00">
        <route edges="-E3 -E5"/>
    </vehicle>
    <vehicle id="296" depart="201.00">
        <route edges="-E4 -E1"/>
    </vehicle>
    <vehicle id="298" depart="201.00">
        <route edges="-E4 -E1"/>
    </vehicle>
    <vehicle id="299" depart="202.00">
        <route edges="-E3 E4"/>
    </vehicle>
    <vehicle id="300" depart="203.00">
        <route edges="-E4 -E1"/>
    </vehicle>
    <vehicle id="301" depart="204.00">
        <route edges="E1 -E5"/>
    </vehicle>
    <vehicle id="302" depart="205.00">
        <route edges="-E4 E3"/>
    </vehicle>
    <vehicle id="303" depart="206.00">
        <route edges="-E3 E4"/>
    </vehicle>
    <vehicle id="305" depart="207.00">
        <route edges="-E3 -E1"/>
    </vehicle>
    <vehicle id="306" depart="207.00">
        <route edges="E1 -E5"/>
    </vehicle>
    <vehicle id="307" depart="208.00">
        <route edges="-E3 -E5"/>
    </vehicle>
    <vehicle id="308" depart="208.00">
        <route edges="E5 E3"/>
    </vehicle>
    <vehicle id="309" depart="208.00">
        <route edges="-E3 -E1"/>
    </vehicle>
    <vehicle id="310" depart="209.00">
        <route edges="-E4 E3"/>
    </vehicle>
    <vehicle id="311" depart="210.00">
        <route edges="E5 -E1"/>
    </vehicle>
    <vehicle id="312" depart="210.00">
        <route edges="-E4 -E5"/>
    </vehicle>
    <vehicle id="313" depart="211.00">
        <route edges="E5 E3"/>
    </vehicle>
    <vehicle id="316" depart="213.00">
        <route edges="-E3 E4"/>
    </vehicle>
    <vehicle id="320" depart="215.00">
        <route edges="-E3 -E1"/>
    </vehicle>
    <vehicle id="321" depart="215.00">
        <route edges="E5 E4"/>
    </vehicle>
    <vehicle id="322" depart="216.00">
        <route edges="-E4 -E5"/>
    </vehicle>
    <vehicle id="323" depart="217.00">
        <route edges="E5 -E1"/>
    </vehicle>
    <vehicle id="324" depart="218.00">
        <route edges="-E4 E3"/>
    </vehicle>
    <vehicle id="325" depart="219.00">
        <route edges="E5 E3"/>
    </vehicle>
    <vehicle id="326" depart="220.00">
        <route edges="-E3 E4"/>
    </vehicle>
    <vehicle id="327" depart="222.00">
        <route edges="E1 -E5"/>
    </vehicle>
    <vehicle id="329" depart="224.00">
        <route edges="-E4 E3"/>
    </vehicle>
    <vehicle id="332" depart="225.00">
        <route edges="E5 E4"/>
    </vehicle>
    <vehicle id="334" depart="226.00">
        <route edges="-E3 E4"/>
    </vehicle>
    <vehicle id="335" depart="226.00">
        <route edges="-E3 E4"/>
    </vehicle>
    <vehicle id="338" depart="230.00">
        <route edges="-E4 E3"/>
    </vehicle>
    <vehicle id="339" depart="231.00">
        <route edges="-E4 -E5"/>
    </vehicle>
    <vehicle id="340" depart="231.00">
        <route edges="E5 E4"/>
    </vehicle>
    <vehicle id="341" depart="232.00">
        <route edges="-E3 E4"/>
    </vehicle>
    <vehicle id="343" depart="232.00">
        <route edges="-E3 -E5"/>
    </vehicle>
    <vehicle id="344" depart="233.00">
        <route edges="-E3 -E5"/>
    </vehicle>
    <vehicle id="345" depart="233.00">
        <route edges="E1 -E5"/>
    </vehicle>
    <vehicle id="346" depart="234.00">
        <route edges="-E4 E3"/>
    </vehicle>
    <vehicle id="347" depart="234.00">
        <route edges="-E4 -E1"/>
    </vehicle>
    <vehicle id="348" depart="234.00">
        <route edges="E1 E3"/>
    </vehicle>
    <vehicle id="349" depart="235.00">
        <route edges="-E4 -E1"/>
    </vehicle>
    <vehicle id="350" depart="239.00">
        <route edges="E5 -E1"/>
    </vehicle>
    <vehicle id="353" depart="242.00">
        <route edges="E5 E4"/>
    </vehicle>
    <vehicle id="354" depart="242.00">
        <route edges="E5 -E1"/>
    </vehicle>
    <vehicle id="355" depart="243.00">
        <route edges="E1 E3"/>
    </vehicle>
    <vehicle id="356" depart="244.00">
        <route edges="E5 E3"/>
    </vehicle>
    <vehicle id="357" depart="245.00">
        <route edges="E1 E4"/>
    </vehicle>
    <vehicle id="358" depart="245.00">
        <route edges="-E3 -E1"/>
    </vehicle>
    <vehicle id="360" depart="248.00">
        <route edges="E5 E3"/>
    </vehicle>
    <vehicle id="361" depart="249.00">
        <route edges="-E3 E4"/>
    </vehicle>
    <vehicle id="364" depart="250.00">
        <route edges="-E3 -E1"/>
    </vehicle>
    <vehicle id="366" depart="254.00">
        <route edges="E1 E4"/>
    </vehicle>
    <vehicle id="367" depart="255.00">
        <route edges="-E4 E3"/>
    </vehicle>
    <vehicle id="368" depart="256.00">
        <route edges="E1 E3"/>
    </vehicle>
    <vehicle id="369" depart="257.00">
        <route edges="E1 -E5"/>
    </vehicle>
    <vehicle id="371" depart="257.00">
        <route edges="E5 -E1"/>
    </vehicle>
    <vehicle id="373" depart="258.00">
        <route edges="-E4 -E5"/>
    </vehicle>
    <vehicle id="374" depart="259.00">
        <route edges="E5 E3"/>
    </vehicle>
    <vehicle id="375" depart="259.00">
        <route edges="-E3 E4"/>
    </vehicle>
    <vehicle id="376" depart="260.00">
        <route edges="E5 E4"/>
    </vehicle>
    <vehicle id="377" depart="260.00">
        <route edges="E5 E4"/>
    </vehicle>
    <vehicle id="378" depart="261.00">
        <route edges="-E4 -E5"/>
    </vehicle>
    <vehicle id="379" depart="261.00">
        <route edges="E1 -E5"/>
    </vehicle>
    <vehicle id="380" depart="262.00">
        <route edges="E5 -E1"/>
    </vehicle>
    <vehicle id="381" depart="262.00">
        <route edges="-E4 E3"/>
    </vehicle>
    <vehicle id="383" depart="264.00">
        <route edges="E5 E3"/>
    </vehicle>
    <vehicle id="384" depart="264.00">
        <route edges="-E3 -E1"/>
    </vehicle>
    <vehicle id="387" depart="266.00">
        <route edges="E1 E3"/>
    </vehicle>
    <vehicle id="388" depart="266.00">
        <route edges="-E3 -E1"/>
    </vehicle>
    <vehicle id="389" depart="267.00">
        <route edges="E5 -E1"/>
    </vehicle>
    <vehicle id="391" depart="268.00">
        <route edges="E1 E3"/>
    </vehicle>
    <vehicle id="393" depart="268.00">
        <route edges="E1 -E5"/>
    </vehicle>
    <vehicle id="394" depart="269.00">
        <route edges="-E3 -E1"/>
    </vehicle>
    <vehicle id="395" depart="270.00">
        <route edges="-E3 -E5"/>
    </vehicle>
    <vehicle id="399" depart="273.00">
        <route edges="-E3 E4"/>
    </vehicle>
    <vehicle id="400" depart="274.00">
        <route edges="-E4 E3"/>
    </vehicle>
    <vehicle id="401" depart="274.00">
        <route edges="E1 E4"/>
    </vehicle>
    <vehicle id="402" depart="275.00">
        <route edges="E1 E3"/>
    </vehicle>
    <vehicle id="405" depart="276.00">
        <route edges="E1 E3"/>
    </vehicle>
    <vehicle id="410" depart="283.00">
        <route edges="-E3 -E5"/>
    </vehicle>
    <vehicle id="411" depart="284.00">
        <route edges="E1 E3"/>
    </vehicle>
    <vehicle id="412" depart="286.00">
        <route edges="-E3 -E5"/>
    </vehicle>
    <vehicle id="413" depart="287.00">
        <route edges="-E4 E3"/>
    </vehicle>
    <vehicle id="414" depart="288.00">
        <route edges="E1 -E5"/>
    </vehicle>
    <vehicle id="415" depart="290.00">
        <route edges="E1 E4"/>
    </vehicle>
    <vehicle id="416" depart="290.00">
        <route edges="E5 E3"/>
    </vehicle>
    <vehicle id="417" depart="292.00">
        <route edges="E5 E4"/>
    </vehicle>
    <vehicle id="418" depart="292.00">
        <route edges="-E4 -E1"/>
    </vehicle>
    <vehicle id="420" depart="293.00">
        <route edges="E5 E3"/>
    </vehicle>
    <vehicle id="421" depart="294.00">
        <route edges="-E3 -E5"/>
    </vehicle>
    <vehicle id="422" depart="295.00">
        <route edges="-E4 -E5"/>
    </vehicle>
    <vehicle id="425" depart="298.00">
        <route edges="E1 -E5"/>
    </vehicle>
    <vehicle id="426" depart="299.00">
        <route edges="-E4 E3"/>
    </vehicle>
    <vehicle id="427" depart="300.00">
        <route edges="-E3 -E5"/>
    </vehicle>
    <vehicle id="428" depart="301.00">
        <route edges="E5 E4"/>
    </vehicle>
    <vehicle id="429" depart="302.00">
        <route edges="E5 E4"/>
    </vehicle>
    <vehicle id="430" depart="303.00">
        <route edges="-E3 -E1"/>
    </vehicle>
    <vehicle id="431" depart="303.00">
        <route edges="E5 -E1"/>
    </vehicle>
    <vehicle id="433" depart="305.00">
        <route edges="-E3 -E1"/>
    </vehicle>
    <vehicle id="435" depart="306.00">
        <route edges="E1 E4"/>
    </vehicle>
    <vehicle id="436" depart="307.00">
        <route edges="E1 -E5"/>
    </vehicle>
    <vehicle id="437" depart="308.00">
        <route edges="E5 E4"/>
    </vehicle>
    <vehicle id="438" depart="308.00">
        <route edges="E5 E4"/>
    </vehicle>
    <vehicle id="440" depart="309.00">
        <route edges="E1 E4"/>
    </vehicle>
    <vehicle id="441" depart="310.00">
        <route edges="E5 E4"/>
    </vehicle>
    <vehicle id="442" depart="311.00">
        <route edges="-E4 -E5"/>
    </vehicle>
    <vehicle id="444" depart="312.00">
        <route edges="-E3 E4"/>
    </vehicle>
    <vehicle id="445" depart="312.00">
        <route edges="-E3 -E5"/>
    </vehicle>
    <vehicle id="446" depart="313.00">
        <route edges="-E3 -E1"/>
    </vehicle>
    <vehicle id="447" depart="314.00">
        <route edges="E5 -E1"/>
    </vehicle>
    <vehicle id="448" depart="314.00">
        <route edges="-E4 E3"/>
    </vehicle>
    <vehicle id="449" depart="315.00">
        <route edges="E1 E3"/>
    </vehicle>
    <vehicle id="450" depart="315.00">
        <route edges="-E3 E4"/>
    </vehicle>
    <vehicle id="452" depart="316.00">
        <route edges="E1 E4"/>
    </vehicle>