<?xml version="1.0" encoding="UTF-8"?>

<!-- generated on 2024-06-03 07:49:30.660377 by randomTrips.py v1_20_0+0002-343658e7c64
<configuration>
    <net-file value="osm.net.xml"/>
    <output-trip-file value="osm.passenger.trips.xml"/>
    <route-file value="osm.passenger.rou.xml"/>
    <lanes value="True"/>
    <seed value="78"/>
    <validate value="True"/>
    <end value="1000.0"/>
    <period value="0.7"/>
    <binomial value="4"/>
</configuration>
-->

<!-- generated on 2024-06-03 07:49:30 by Eclipse SUMO duarouter Version 1.20.0
<configuration xmlns:xsi="http://www.w3.org/2001/XMLSchema-instance" xsi:noNamespaceSchemaLocation="http://sumo.dlr.de/xsd/duarouterConfiguration.xsd">

    <input>
        <net-file value="osm.net.xml"/>
        <route-files value="osm.passenger.trips.xml"/>
    </input>

    <output>
        <output-file value="osm.passenger.trips.xml.tmp"/>
        <alternatives-output value="NUL"/>
        <write-trips value="true"/>
    </output>

    <time>
        <begin value="0"/>
        <end value="1000.0"/>
    </time>

    <report>
        <no-warnings value="true"/>
        <ignore-errors value="true"/>
        <no-step-log value="true"/>
    </report>

</configuration>
-->

<routes xmlns:xsi="http://www.w3.org/2001/XMLSchema-instance" xsi:noNamespaceSchemaLocation="http://sumo.dlr.de/xsd/routes_file.xsd">
    <trip id="0" depart="0.00" from="E5" to="E3"/>
    <trip id="1" depart="0.00" from="-E4" to="-E1"/>
    <trip id="2" depart="0.00" from="E1" to="E4"/>
    <trip id="3" depart="1.00" from="E1" to="-E5"/>
    <trip id="4" depart="1.00" from="-E3" to="-E5"/>
    <trip id="5" depart="2.00" from="E5" to="E4"/>
    <trip id="6" depart="3.00" from="-E3" to="-E1"/>
    <trip id="7" depart="3.00" from="E1" to="E4"/>
    <trip id="8" depart="3.00" from="E5" to="-E1"/>
    <trip id="9" depart="5.00" from="E5" to="-E1"/>
    <trip id="10" depart="6.00" from="-E4" to="E3"/>
    <trip id="12" depart="7.00" from="E1" to="E3"/>
    <trip id="16" depart="9.00" from="-E3" to="-E1"/>
    <trip id="17" depart="9.00" from="-E4" to="-E1"/>
    <trip id="18" depart="10.00" from="-E3" to="-E1"/>
    <trip id="20" depart="11.00" from="E1" to="E3"/>
    <trip id="21" depart="12.00" from="-E3" to="E4"/>
    <trip id="22" depart="12.00" from="-E3" to="-E1"/>
    <trip id="23" depart="13.00" from="-E4" to="-E1"/>
    <trip id="25" depart="17.00" from="-E4" to="-E1"/>
    <trip id="26" depart="18.00" from="E1" to="E4"/>
    <trip id="27" depart="19.00" from="-E3" to="E4"/>
    <trip id="28" depart="20.00" from="-E3" to="-E5"/>
    <trip id="29" depart="22.00" from="E1" to="-E5"/>
    <trip id="30" depart="22.00" from="E5" to="-E1"/>
    <trip id="31" depart="23.00" from="E1" to="-E5"/>
    <trip id="32" depart="24.00" from="E5" to="E3"/>
    <trip id="34" depart="25.00" from="E1" to="E4"/>
    <trip id="35" depart="27.00" from="-E4" to="-E1"/>
    <trip id="36" depart="27.00" from="E5" to="-E1"/>
    <trip id="37" depart="27.00" from="-E4" to="E3"/>
    <trip id="38" depart="29.00" from="-E4" to="E3"/>
    <trip id="41" depart="30.00" from="-E3" to="-E5"/>
    <trip id="43" depart="33.00" from="E5" to="E4"/>
    <trip id="44" depart="34.00" from="-E4" to="-E5"/>
    <trip id="46" depart="34.00" from="-E4" to="-E5"/>
    <trip id="48" depart="35.00" from="E1" to="-E5"/>
    <trip id="52" depart="37.00" from="-E4" to="-E1"/>
    <trip id="54" depart="38.00" from="E5" to="E3"/>
    <trip id="55" depart="39.00" from="E1" to="-E5"/>
    <trip id="56" depart="39.00" from="-E3" to="-E1"/>
    <trip id="59" depart="42.00" from="E1" to="E4"/>
    <trip id="60" depart="43.00" from="-E3" to="E4"/>
    <trip id="61" depart="43.00" from="E1" to="E3"/>
    <trip id="62" depart="43.00" from="-E4" to="-E5"/>
    <trip id="63" depart="45.00" from="E5" to="-E1"/>
    <trip id="64" depart="45.00" from="-E4" to="-E1"/>
    <trip id="65" depart="46.00" from="-E4" to="-E1"/>
    <trip id="66" depart="46.00" from="E5" to="-E1"/>
    <trip id="68" depart="48.00" from="E5" to="-E1"/>
    <trip id="69" depart="49.00" from="E5" to="E3"/>
    <trip id="70" depart="51.00" from="E5" to="E4"/>
    <trip id="71" depart="51.00" from="E5" to="E4"/>
    <trip id="72" depart="52.00" from="E1" to="E4"/>
    <trip id="74" depart="54.00" from="E5" to="-E1"/>
    <trip id="76" depart="56.00" from="E5" to="-E1"/>
    <trip id="77" depart="56.00" from="-E3" to="-E1"/>
    <trip id="78" depart="56.00" from="E1" to="E3"/>
    <trip id="80" depart="58.00" from="E1" to="E4"/>
    <trip id="81" depart="58.00" from="-E4" to="E3"/>
    <trip id="82" depart="59.00" from="-E3" to="-E1"/>
    <trip id="85" depart="60.00" from="E5" to="E3"/>
    <trip id="86" depart="60.00" from="E5" to="E3"/>
    <trip id="88" depart="61.00" from="E1" to="E4"/>
    <trip id="89" depart="63.00" from="E1" to="E4"/>
    <trip id="90" depart="63.00" from="E5" to="E3"/>
    <trip id="91" depart="63.00" from="-E4" to="-E5"/>
    <trip id="94" depart="66.00" from="E5" to="E4"/>
    <trip id="95" depart="67.00" from="E1" to="-E5"/>
    <trip id="96" depart="67.00" from="E5" to="E3"/>
    <trip id="97" depart="68.00" from="-E4" to="E3"/>
    <trip id="98" depart="68.00" from="-E3" to="-E1"/>
    <trip id="99" depart="69.00" from="-E3" to="-E1"/>
    <trip id="100" depart="69.00" from="E1" to="-E5"/>
    <trip id="101" depart="71.00" from="E5" to="-E1"/>
    <trip id="102" depart="71.00" from="-E3" to="E4"/>
    <trip id="103" depart="73.00" from="E5" to="E4"/>
    <trip id="104" depart="73.00" from="E5" to="-E1"/>
    <trip id="105" depart="73.00" from="E1" to="E4"/>
    <trip id="108" depart="78.00" from="-E3" to="-E5"/>
    <trip id="109" depart="80.00" from="E5" to="E4"/>
    <trip id="110" depart="80.00" from="-E4" to="-E1"/>
    <trip id="112" depart="81.00" from="-E4" to="E3"/>
    <trip id="113" depart="82.00" from="E1" to="-E5"/>
    <trip id="114" depart="83.00" from="-E3" to="-E1"/>
    <trip id="116" depart="83.00" from="-E4" to="-E1"/>
    <trip id="117" depart="84.00" from="E1" to="-E5"/>
    <trip id="119" depart="84.00" from="E1" to="E3"/>
    <trip id="120" depart="85.00" from="E1" to="E4"/>
    <trip id="121" depart="85.00" from="-E4" to="E3"/>
    <trip id="123" depart="88.00" from="E1" to="E4"/>
    <trip id="124" depart="89.00" from="E5" to="-E1"/>
    <trip id="125" depart="89.00" from="E5" to="E3"/>
    <trip id="126" depart="90.00" from="-E3" to="-E5"/>
    <trip id="128" depart="91.00" from="-E3" to="-E5"/>
    <trip id="129" depart="91.00" from="-E3" to="-E1"/>
    <trip id="130" depart="92.00" from="-E3" to="E4"/>
    <trip id="131" depart="92.00" from="E5" to="E4"/>
    <trip id="133" depart="93.00" from="-E4" to="-E5"/>
    <trip id="135" depart="94.00" from="E5" to="E3"/>
    <trip id="136" depart="95.00" from="-E3" to="-E1"/>
    <trip id="138" depart="96.00" from="E1" to="E4"/>
    <trip id="139" depart="96.00" from="-E4" to="E3"/>
    <trip id="140" depart="99.00" from="E5" to="E3"/>
    <trip id="141" depart="99.00" from="E5" to="E3"/>
    <trip id="142" depart="100.00" from="E5" to="E4"/>
    <trip id="143" depart="101.00" from="-E3" to="E4"/>
    <trip id="144" depart="102.00" from="-E4" to="-E5"/>
    <trip id="146" depart="104.00" from="-E3" to="-E1"/>
    <trip id="147" depart="104.00" from="-E3" to="-E5"/>
    <trip id="149" depart="105.00" from="-E3" to="E4"/>
    <trip id="151" depart="107.00" from="E5" to="E4"/>
    <trip id="155" depart="109.00" from="E1" to="E3"/>
    <trip id="157" depart="110.00" from="E5" to="-E1"/>
    <trip id="158" depart="111.00" from="E5" to="E4"/>
    <trip id="159" depart="111.00" from="-E4" to="-E1"/>
    <trip id="160" depart="112.00" from="-E4" to="-E5"/>
    <trip id="161" depart="113.00" from="E5" to="-E1"/>
    <trip id="163" depart="114.00" from="-E4" to="-E1"/>
    <trip id="164" depart="115.00" from="E5" to="E4"/>
    <trip id="165" depart="117.00" from="-E3" to="-E1"/>
    <trip id="166" depart="118.00" from="-E3" to="-E5"/>
    <trip id="167" depart="120.00" from="-E3" to="-E1"/>
    <trip id="168" depart="120.00" from="-E4" to="-E5"/>
    <trip id="169" depart="121.00" from="E1" to="E4"/>
    <trip id="172" depart="123.00" from="E1" to="-E5"/>
    <trip id="173" depart="124.00" from="-E3" to="E4"/>
    <trip id="175" depart="125.00" from="E1" to="-E5"/>
    <trip id="176" depart="125.00" from="E1" to="-E5"/>
    <trip id="178" depart="126.00" from="E1" to="E3"/>
    <trip id="179" depart="127.00" from="E1" to="E3"/>
    <trip id="180" depart="127.00" from="E5" to="-E1"/>
    <trip id="181" depart="128.00" from="-E4" to="-E1"/>
    <trip id="182" depart="129.00" from="E5" to="-E1"/>
    <trip id="183" depart="129.00" from="E1" to="E3"/>
    <trip id="184" depart="131.00" from="-E3" to="E4"/>
    <trip id="185" depart="132.00" from="E5" to="E4"/>
    <trip id="188" depart="134.00" from="-E4" to="-E1"/>
    <trip id="189" depart="134.00" from="-E4" to="-E1"/>
    <trip id="190" depart="135.00" from="-E4" to="-E5"/>
    <trip id="191" depart="135.00" from="E1" to="E3"/>
    <trip id="192" depart="135.00" from="E5" to="-E1"/>
    <trip id="193" depart="136.00" from="E5" to="E3"/>
    <trip id="194" depart="137.00" from="E5" to="E4"/>
    <trip id="195" depart="137.00" from="E1" to="-E5"/>
    <trip id="196" depart="137.00" from="-E3" to="-E5"/>
    <trip id="197" depart="138.00" from="-E3" to="-E1"/>
    <trip id="198" depart="138.00" from="-E4" to="-E1"/>
    <trip id="199" depart="139.00" from="E5" to="E3"/>
    <trip id="200" depart="139.00" from="E1" to="E3"/>
    <trip id="201" depart="140.00" from="-E3" to="-E5"/>
    <trip id="202" depart="141.00" from="E1" to="E4"/>
    <trip id="204" depart="144.00" from="-E3" to="-E1"/>
    <trip id="205" depart="144.00" from="-E3" to="-E1"/>
    <trip id="206" depart="145.00" from="-E3" to="E4"/>
    <trip id="207" depart="146.00" from="E5" to="-E1"/>
    <trip id="210" depart="148.00" from="E1" to="-E5"/>
    <trip id="211" depart="149.00" from="E1" to="E3"/>
    <trip id="212" depart="150.00" from="E5" to="E4"/>
    <trip id="213" depart="151.00" from="E1" to="E4"/>
    <trip id="214" depart="151.00" from="E1" to="E4"/>
    <trip id="215" depart="153.00" from="E5" to="E4"/>
    <trip id="216" depart="154.00" from="-E4" to="-E1"/>
    <trip id="217" depart="155.00" from="E5" to="-E1"/>
    <trip id="219" depart="157.00" from="-E3" to="E4"/>
    <trip id="220" depart="157.00" from="-E4" to="-E1"/>
    <trip id="221" depart="158.00" from="-E4" to="-E5"/>
    <trip id="222" depart="159.00" from="-E4" to="E3"/>
    <trip id="223" depart="160.00" from="-E4" to="-E1"/>
    <trip id="225" depart="161.00" from="-E4" to="-E1"/>
    <trip id="226" depart="161.00" from="-E4" to="-E1"/>
    <trip id="227" depart="163.00" from="E1" to="E4"/>
    <trip id="228" depart="164.00" from="E5" to="-E1"/>
    <trip id="229" depart="165.00" from="-E3" to="E4"/>
    <trip id="230" depart="166.00" from="E1" to="E3"/>
    <trip id="231" depart="169.00" from="E5" to="E4"/>
    <trip id="233" depart="171.00" from="-E3" to="-E1"/>
    <trip id="234" depart="171.00" from="E1" to="E4"/>
    <trip id="235" depart="173.00" from="-E4" to="-E5"/>
    <trip id="237" depart="173.00" from="E5" to="-E1"/>
    <trip id="238" depart="173.00" from="E1" to="E3"/>
    <trip id="239" depart="174.00" from="-E3" to="E4"/>
    <trip id="240" depart="175.00" from="E1" to="E4"/>
    <trip id="242" depart="178.00" from="E5" to="E4"/>
    <trip id="245" depart="179.00" from="E1" to="E4"/>
    <trip id="247" depart="179.00" from="-E3" to="-E5"/>
    <trip id="248" depart="180.00" from="-E3" to="-E5"/>
    <trip id="249" depart="181.00" from="E5" to="E3"/>
    <trip id="251" depart="182.00" from="E1" to="E4"/>
    <trip id="252" depart="183.00" from="-E4" to="-E5"/>
    <trip id="253" depart="184.00" from="E1" to="E3"/>
    <trip id="254" depart="184.00" from="-E4" to="-E1"/>
    <trip id="256" depart="186.00" from="-E3" to="-E5"/>
    <trip id="257" depart="187.00" from="-E4" to="E3"/>
    <trip id="258" depart="187.00" from="E5" to="-E1"/>
    <trip id="259" depart="187.00" from="E5" to="E3"/>
    <trip id="264" depart="189.00" from="-E4" to="E3"/>
    <trip id="266" depart="190.00" from="E5" to="-E1"/>
    <trip id="267" depart="191.00" from="E5" to="E4"/>
    <trip id="268" depart="191.00" from="E1" to="E4"/>
    <trip id="269" depart="192.00" from="-E3" to="-E1"/>
    <trip id="271" depart="193.00" from="E1" to="E3"/>
    <trip id="272" depart="193.00" from="-E3" to="-E5"/>
    <trip id="273" depart="194.00" from="E5" to="E3"/>
    <trip id="274" depart="194.00" from="E5" to="-E1"/>
    <trip id="276" depart="195.00" from="-E3" to="-E1"/>
    <trip id="277" depart="195.00" from="E1" to="E4"/>
    <trip id="278" depart="196.00" from="-E3" to="E4"/>
    <trip id="279" depart="197.00" from="E1" to="-E5"/>
    <trip id="281" depart="198.00" from="-E4" to="E3"/>
    <trip id="282" depart="199.00" from="-E4" to="-E1"/>
    <trip id="283" depart="200.00" from="-E4" to="E3"/>
    <trip id="285" depart="202.00" from="E1" to="E3"/>
    <trip id="288" depart="205.00" from="E5" to="E4"/>
    <trip id="290" depart="207.00" from="E1" to="E4"/>
    <trip id="295" depart="210.00" from="E5" to="-E1"/>
    <trip id="296" depart="211.00" from="E1" to="E4"/>
    <trip id="297" depart="212.00" from="-E4" to="-E1"/>
    <trip id="298" depart="212.00" from="-E3" to="-E1"/>
    <trip id="299" depart="212.00" from="E1" to="E3"/>
    <trip id="300" depart="213.00" from="E1" to="-E5"/>
    <trip id="301" depart="213.00" from="E5" to="E3"/>
    <trip id="303" depart="215.00" from="E5" to="-E1"/>
    <trip id="304" depart="216.00" from="-E3" to="-E5"/>
    <trip id="306" depart="216.00" from="-E4" to="-E1"/>
    <trip id="309" depart="218.00" from="-E3" to="-E5"/>
    <trip id="310" depart="218.00" from="-E3" to="E4"/>
    <trip id="311" depart="219.00" from="E1" to="E4"/>
    <trip id="312" depart="221.00" from="-E4" to="E3"/>
    <trip id="313" depart="222.00" from="E5" to="-E1"/>
    <trip id="315" depart="223.00" from="-E4" to="-E5"/>
    <trip id="316" depart="226.00" from="-E3" to="-E5"/>
    <trip id="317" depart="226.00" from="E5" to="E3"/>
    <trip id="318" depart="227.00" from="-E4" to="-E5"/>
    <trip id="319" depart="227.00" from="-E3" to="-E5"/>
    <trip id="320" depart="228.00" from="-E4" to="E3"/>
    <trip id="321" depart="229.00" from="-E4" to="-E1"/>
    <trip id="322" depart="230.00" from="-E4" to="E3"/>
    <trip id="323" depart="230.00" from="E1" to="E4"/>
    <trip id="324" depart="231.00" from="-E4" to="-E1"/>
    <trip id="325" depart="232.00" from="E5" to="E3"/>
    <trip id="326" depart="233.00" from="-E4" to="-E5"/>
    <trip id="327" depart="233.00" from="-E3" to="-E1"/>
    <trip id="328" depart="235.00" from="-E4" to="-E1"/>
    <trip id="330" depart="236.00" from="E5" to="E3"/>
    <trip id="331" depart="236.00" from="E1" to="E3"/>
    <trip id="332" depart="238.00" from="E5" to="E3"/>
    <trip id="333" depart="239.00" from="-E3" to="-E1"/>
    <trip id="334" depart="240.00" from="-E3" to="-E5"/>
    <trip id="335" depart="243.00" from="-E4" to="-E1"/>
    <trip id="336" depart="243.00" from="-E3" to="-E1"/>
    <trip id="337" depart="246.00" from="-E4" to="-E1"/>
    <trip id="340" depart="247.00" from="-E4" to="-E1"/>
    <trip id="345" depart="250.00" from="-E4" to="-E1"/>
    <trip id="347" depart="252.00" from="E5" to="E4"/>
    <trip id="348" depart="253.00" from="E1" to="E4"/>
    <trip id="349" depart="255.00" from="E1" to="-E5"/>
    <trip id="353" depart="258.00" from="E5" to="E3"/>
    <trip id="354" depart="258.00" from="E1" to="-E5"/>
    <trip id="355" depart="259.00" from="E5" to="E3"/>
    <trip id="356" depart="259.00" from="E1" to="E4"/>
    <trip id="357" depart="260.00" from="E1" to="E4"/>
    <trip id="360" depart="261.00" from="-E4" to="-E5"/>
    <trip id="362" depart="262.00" from="E1" to="E3"/>
    <trip id="363" depart="262.00" from="E1" to="-E5"/>
    <trip id="364" depart="263.00" from="E5" to="E3"/>
    <trip id="365" depart="263.00" from="-E4" to="E3"/>
    <trip id="366" depart="263.00" from="E5" to="E4"/>
    <trip id="369" depart="265.00" from="E5" to="-E1"/>
    <trip id="370" depart="265.00" from="E5" to="-E1"/>
    <trip id="371" depart="265.00" from="E1" to="E4"/>
    <trip id="372" depart="267.00" from="E5" to="E3"/>
    <trip id="373" depart="268.00" from="E1" to="E4"/>
    <trip id="375" depart="271.00" from="-E4" to="-E1"/>
    <trip id="376" depart="271.00" from="-E3" to="E4"/>
    <trip id="378" depart="273.00" from="E5" to="-E1"/>
    <trip id="379" depart="273.00" from="E1" to="-E5"/>
    <trip id="380" depart="275.00" from="E1" to="E4"/>
    <trip id="381" depart="275.00" from="E5" to="E3"/>
    <trip id="382" depart="276.00" from="-E3" to="E4"/>
    <trip id="383" depart="277.00" from="-E4" to="-E1"/>
    <trip id="384" depart="278.00" from="E1" to="-E5"/>
    <trip id="385" depart="279.00" from="-E3" to="-E5"/>
    <trip id="386" depart="279.00" from="E1" to="-E5"/>
    <trip id="387" depart="280.00" from="-E3" to="-E1"/>
    <trip id="388" depart="281.00" from="-E4" to="-E1"/>
    <trip id="392" depart="285.00" from="-E4" to="-E5"/>
    <trip id="393" depart="286.00" from="-E3" to="E4"/>
    <trip id="395" depart="287.00" from="E1" to="E4"/>
    <trip id="396" depart="287.00" from="E5" to="E4"/>
    <trip id="399" depart="289.00" from="E1" to="E3"/>
    <trip id="400" depart="290.00" from="-E4" to="-E5"/>
    <trip id="402" depart="292.00" from="-E4" to="-E1"/>
    <trip id="403" depart="292.00" from="E5" to="-E1"/>
    <trip id="405" depart="293.00" from="E1" to="E3"/>
    <trip id="407" depart="295.00" from="E1" to="-E5"/>
    <trip id="408" depart="296.00" from="E1" to="E3"/>
    <trip id="411" depart="299.00" from="-E4" to="E3"/>
    <trip id="412" depart="300.00" from="E5" to="E4"/>
    <trip id="413" depart="301.00" from="-E4" to="-E1"/>
    <trip id="414" depart="302.00" from="E1" to="E4"/>
    <trip id="415" depart="303.00" from="E5" to="E3"/>
    <trip id="416" depart="304.00" from="E1" to="E4"/>
    <trip id="417" depart="306.00" from="-E3" to="E4"/>
    <trip id="423" depart="311.00" from="-E3" to="-E1"/>
    <trip id="424" depart="311.00" from="-E4" to="-E5"/>
    <trip id="425" depart="311.00" from="-E4" to="-E5"/>
    <trip id="426" depart="311.00" from="-E3" to="-E1"/>
    <trip id="429" depart="313.00" from="E1" to="-E5"/>
    <trip id="430" depart="314.00" from="E5" to="-E1"/>
    <trip id="431" depart="314.00" from="E1" to="-E5"/>
    <trip id="432" depart="314.00" from="-E4" to="-E5"/>
    <trip id="433" depart="315.00" from="E5" to="E4"/>
    <trip id="434" depart="316.00" from="-E3" to="-E1"/>
    <trip id="435" depart="317.00" from="E1" to="-E5"/>
    <trip id="436" depart="318.00" from="E5" to="E4"/>
    <trip id="437" depart="318.00" from="-E4" to="-E1"/>
    <trip id="438" depart="318.00" from="E5" to="E4"/>
    <trip id="439" depart="319.00" from="-E3" to="-E5"/>
    <trip id="440" depart="319.00" from="E5" to="E4"/>
    <trip id="441" depart="320.00" from="E5" to="-E1"/>
    <trip id="442" depart="321.00" from="E1" to="E4"/>
    <trip id="443" depart="322.00" from="E5" to="E4"/>
    <trip id="444" depart="322.00" from="-E3" to="E4"/>
    <trip id="446" depart="323.00" from="E5" to="E3"/>
    <trip id="447" depart="324.00" from="-E4" to="E3"/>
    <trip id="449" depart="325.00" from="-E4" to="E3"/>
    <trip id="451" depart="326.00" from="-E3" to="-E5"/>
    <trip id="452" depart="326.00" from="-E3" to="-E1"/>
    <trip id="456" depart="329.00" from="E1" to="E4"/>
    <trip id="457" depart="329.00" from="-E3" to="-E5"/>
    <trip id="458" depart="330.00" from="-E4" to="-E5"/>
    <trip id="459" depart="331.00" from="-E4" to="-E5"/>
    <trip id="460" depart="331.00" from="E5" to="E4"/>
    <trip id="461" depart="331.00" from="-E3" to="-E1"/>
    <trip id="462" depart="332.00" from="E5" to="E3"/>
    <trip id="464" depart="332.00" from="-E3" to="-E5"/>
    <trip id="465" depart="332.00" from="E1" to="-E5"/>
    <trip id="466" depart="333.00" from="E5" to="E4"/>
    <trip id="467" depart="333.00" from="-E4" to="-E5"/>
    <trip id="470" depart="335.00" from="E5" to="E4"/>
    <trip id="471" depart="335.00" from="E1" to="E4"/>
    <trip id="472" depart="336.00" from="-E4" to="-E1"/>
    <trip id="473" depart="336.00" from="E5" to="-E1"/>
    <trip id="474" depart="337.00" from="-E3" to="E4"/>
    <trip id="476" depart="338.00" from="-E4" to="E3"/>
    <trip id="477" depart="339.00" from="-E3" to="-E1"/>
    <trip id="478" depart="340.00" from="E1" to="E4"/>
    <trip id="479" depart="340.00" from="-E4" to="-E5"/>
    <trip id="481" depart="341.00" from="-E3" to="-E1"/>
    <trip id="482" depart="341.00" from="-E3" to="-E5"/>
    <trip id="484" depart="342.00" from="E1" to="-E5"/>
    <trip id="485" depart="344.00" from="-E3" to="-E1"/>
    <trip id="486" depart="346.00" from="-E3" to="E4"/>
    <trip id="487" depart="347.00" from="-E3" to="-E5"/>
    <trip id="488" depart="347.00" from="-E3" to="-E1"/>
    <trip id="489" depart="348.00" from="-E4" to="E3"/>
    <trip id="490" depart="348.00" from="E5" to="E3"/>
    <trip id="491" depart="348.00" from="-E3" to="E4"/>
    <trip id="492" depart="349.00" from="-E3" to="E4"/>
    <trip id="494" depart="349.00" from="E5" to="-E1"/>
    <trip id="495" depart="351.00" from="E5" to="E3"/>
    <trip id="497" depart="353.00" from="E5" to="E4"/>
    <trip id="498" depart="354.00" from="-E3" to="-E1"/>
    <trip id="499" depart="355.00" from="E1" to="E4"/>
    <trip id="500" depart="355.00" from="E5" to="E3"/>
    <trip id="501" depart="355.00" from="E5" to="-E1"/>
    <trip id="502" depart="355.00" from="E1" to="E4"/>
    <trip id="504" depart="357.00" from="E5" to="-E1"/>
    <trip id="506" depart="357.00" from="E1" to="-E5"/>
    <trip id="507" depart="357.00" from="E1" to="E4"/>
    <trip id="509" depart="359.00" from="E5" to="-E1"/>
    <trip id="510" depart="359.00" from="-E3" to="E4"/>
    <trip id="511" depart="360.00" from="E5" to="E4"/>
    <trip id="512" depart="361.00" from="E5" to="-E1"/>
    <trip id="513" depart="362.00" from="-E4" to="E3"/>
    <trip id="514" depart="362.00" from="E1" to="-E5"/>
    <trip id="515" depart="363.00" from="E5" to="-E1"/>
    <trip id="516" depart="363.00" from="-E3" to="E4"/>
    <trip id="517" depart="364.00" from="E1" to="E3"/>
    <trip id="518" depart="366.00" from="-E4" to="-E1"/>
    <trip id="519" depart="366.00" from="-E3" to="E4"/>
    <trip id="520" depart="368.00" from="E5" to="E3"/>
    <trip id="523" depart="369.00" from="-E3" to="E4"/>
    <trip id="524" depart="371.00" from="E5" to="-E1"/>
    <trip id="525" depart="371.00" from="-E4" to="-E1"/>
    <trip id="526" depart="372.00" from="E1" to="-E5"/>
    <trip id="527" depart="373.00" from="E1" to="E4"/>
    <trip id="528" depart="373.00" from="-E3" to="E4"/>
    <trip id="531" depart="374.00" from="-E4" to="E3"/>
    <trip id="532" depart="374.00" from="-E3" to="-E1"/>
    <trip id="533" depart="375.00" from="E1" to="-E5"/>
    <trip id="534" depart="376.00" from="E1" to="E4"/>
    <trip id="535" depart="377.00" from="-E4" to="E3"/>
    <trip id="537" depart="378.00" from="E5" to="-E1"/>
    <trip id="538" depart="379.00" from="-E3" to="-E5"/>
    <trip id="539" depart="380.00" from="-E4" to="-E1"/>
    <trip id="540" depart="380.00" from="E5" to="E4"/>
    <trip id="541" depart="380.00" from="E1" to="E4"/>
    <trip id="542" depart="381.00" from="E5" to="E4"/>
    <trip id="543" depart="381.00" from="-E3" to="-E1"/>
    <trip id="544" depart="382.00" from="-E4" to="-E5"/>
    <trip id="546" depart="384.00" from="-E4" to="E3"/>
    <trip id="547" depart="384.00" from="E5" to="E3"/>
    <trip id="548" depart="385.00" from="E5" to="-E1"/>
    <trip id="550" depart="385.00" from="-E3" to="-E1"/>
    <trip id="551" depart="385.00" from="E5" to="E4"/>
    <trip id="553" depart="386.00" from="E1" to="E4"/>
    <trip id="556" depart="392.00" from="-E4" to="E3"/>
    <trip id="557" depart="392.00" from="-E3" to="-E1"/>
    <trip id="559" depart="392.00" from="E1" to="E4"/>
    <trip id="560" depart="394.00" from="E5" to="E3"/>
    <trip id="562" depart="395.00" from="-E3" to="-E5"/>
    <trip id="563" depart="396.00" from="-E4" to="-E5"/>
    <trip id="564" depart="397.00" from="-E3" to="-E1"/>
    <trip id="565" depart="397.00" from="E1" to="E4"/>
    <trip id="566" depart="398.00" from="-E4" to="E3"/>
    <trip id="567" depart="398.00" from="-E3" to="-E5"/>
    <trip id="568" depart="398.00" from="E5" to="-E1"/>
    <trip id="569" depart="398.00" from="-E4" to="-E5"/>
    <trip id="572" depart="400.00" from="-E3" to="-E5"/>
    <trip id="573" depart="400.00" from="E5" to="-E1"/>
    <trip id="574" depart="401.00" from="-E3" to="-E1"/>
    <trip id="575" depart="401.00" from="E5" to="E4"/>
    <trip id="576" depart="402.00" from="E5" to="E4"/>
    <trip id="577" depart="402.00" from="E1" to="E3"/>
    <trip id="579" depart="404.00" from="-E4" to="-E5"/>
    <trip id="583" depart="408.00" from="E1" to="-E5"/>
    <trip id="584" depart="409.00" from="E5" to="E4"/>
    <trip id="585" depart="409.00" from="-E3" to="-E1"/>
    <trip id="589" depart="413.00" from="-E3" to="E4"/>
    <trip id="591" depart="415.00" from="-E3" to="-E5"/>
    <trip id="592" depart="415.00" from="-E4" to="-E1"/>
    <trip id="593" depart="415.00" from="E5" to="E4"/>
    <trip id="594" depart="416.00" from="E5" to="E4"/>
    <trip id="595" depart="416.00" from="-E4" to="-E5"/>
    <trip id="596" depart="417.00" from="E1" to="E4"/>
    <trip id="597" depart="417.00" from="E5" to="-E1"/>
    <trip id="598" depart="418.00" from="-E4" to="-E5"/>
    <trip id="602" depart="421.00" from="E1" to="E3"/>
    <trip id="604" depart="424.00" from="E1" to="E3"/>
    <trip id="605" depart="424.00" from="E1" to="-E5"/>
    <trip id="606" depart="425.00" from="E5" to="E3"/>
    <trip id="607" depart="426.00" from="E5" to="E4"/>
    <trip id="608" depart="426.00" from="E1" to="E4"/>
    <trip id="609" depart="427.00" from="-E4" to="-E5"/>
    <trip id="610" depart="428.00" from="-E4" to="-E5"/>
    <trip id="611" depart="428.00" from="E5" to="E3"/>
    <trip id="613" depart="431.00" from="E5" to="E4"/>
    <trip id="615" depart="432.00" from="-E4" to="E3"/>
    <trip id="617" depart="433.00" from="E1" to="-E5"/>
    <trip id="618" depart="434.00" from="E5" to="E3"/>
    <trip id="619" depart="434.00" from="E5" to="-E1"/>
    <trip id="622" depart="436.00" from="-E3" to="E4"/>
    <trip id="625" depart="437.00" from="E5" to="E4"/>
    <trip id="626" depart="437.00" from="-E4" to="E3"/>
    <trip id="627" depart="438.00" from="E5" to="-E1"/>
    <trip id="628" depart="438.00" from="E1" to="-E5"/>
    <trip id="629" depart="438.00" from="-E3" to="E4"/>
    <trip id="631" depart="439.00" from="E1" to="-E5"/>
    <trip id="632" depart="439.00" from="-E3" to="E4"/>
    <trip id="633" depart="440.00" from="-E3" to="-E5"/>
    <trip id="634" depart="441.00" from="-E4" to="-E1"/>
    <trip id="635" depart="442.00" from="-E4" to="-E1"/>
    <trip id="636" depart="442.00" from="E5" to="-E1"/>
    <trip id="637" depart="444.00" from="E5" to="E3"/>
    <trip id="638" depart="444.00" from="-E3" to="-E5"/>
    <trip id="640" depart="448.00" from="E5" to="-E1"/>
    <trip id="641" depart="448.00" from="E1" to="-E5"/>
    <trip id="642" depart="448.00" from="E5" to="-E1"/>
    <trip id="643" depart="448.00" from="-E3" to="-E1"/>
    <trip id="644" depart="451.00" from="-E3" to="-E5"/>
    <trip id="645" depart="451.00" from="-E4" to="-E1"/>
    <trip id="647" depart="452.00" from="-E4" to="E3"/>
    <trip id="648" depart="453.00" from="E1" to="E4"/>
    <trip id="649" depart="453.00" from="-E4" to="E3"/>
    <trip id="650" depart="455.00" from="-E3" to="-E1"/>
    <trip id="651" depart="456.00" from="-E4" to="-E5"/>
    <trip id="652" depart="456.00" from="E5" to="E4"/>
    <trip id="653" depart="457.00" from="E1" to="-E5"/>
    <trip id="654" depart="457.00" from="E1" to="E3"/>
    <trip id="655" depart="458.00" from="E1" to="E4"/>
    <trip id="656" depart="458.00" from="-E3" to="-E1"/>
    <trip id="657" depart="459.00" from="E1" to="E4"/>
    <trip id="658" depart="460.00" from="-E4" to="-E5"/>
    <trip id="659" depart="462.00" from="E5" to="-E1"/>
    <trip id="660" depart="462.00" from="E1" to="E4"/>
    <trip id="661" depart="462.00" from="-E3" to="E4"/>
    <trip id="663" depart="464.00" from="E5" to="E4"/>
    <trip id="665" depart="467.00" from="-E3" to="-E5"/>
    <trip id="666" depart="468.00" from="E1" to="E4"/>
    <trip id="667" depart="469.00" from="E5" to="E3"/>
    <trip id="668" depart="470.00" from="E5" to="E3"/>
    <trip id="669" depart="472.00" from="-E3" to="-E1"/>
    <trip id="671" depart="473.00" from="-E4" to="-E5"/>
    <trip id="672" depart="475.00" from="-E4" to="-E1"/>
    <trip id="674" depart="475.00" from="E5" to="E3"/>
    <trip id="676" depart="477.00" from="-E4" to="E3"/>
    <trip id="677" depart="478.00" from="-E3" to="E4"/>
    <trip id="680" depart="480.00" from="-E4" to="-E1"/>
    <trip id="681" depart="481.00" from="-E4" to="E3"/>
    <trip id="683" depart="483.00" from="E5" to="-E1"/>
    <trip id="684" depart="483.00" from="E5" to="E3"/>
    <trip id="685" depart="484.00" from="E5" to="E4"/>
    <trip id="686" depart="485.00" from="-E3" to="E4"/>