<?xml version="1.0" encoding="UTF-8"?>

<!-- generated on 2024-06-02 22:11:13.123599 by randomTrips.py v1_20_0+0002-343658e7c64
<configuration>
    <net-file value="osm.net.xml"/>
    <output-trip-file value="osm.passenger.trips.xml"/>
    <route-file value="osm.passenger.rou.xml"/>
    <lanes value="True"/>
    <seed value="900"/>
    <validate value="True"/>
    <end value="1000.0"/>
    <period value="0.7"/>
    <binomial value="4"/>
</configuration>
-->

<!-- generated on 2024-06-02 22:11:13 by Eclipse SUMO duarouter Version 1.20.0
<configuration xmlns:xsi="http://www.w3.org/2001/XMLSchema-instance" xsi:noNamespaceSchemaLocation="http://sumo.dlr.de/xsd/duarouterConfiguration.xsd">

    <input>
        <net-file value="osm.net.xml"/>
        <route-files value="osm.passenger.trips.xml"/>
    </input>

    <output>
        <output-file value="osm.passenger.trips.xml.tmp"/>
        <alternatives-output value="NUL"/>
        <write-trips value="true"/>
    </output>

    <time>
        <begin value="0"/>
        <end value="1000.0"/>
    </time>

    <report>
        <no-warnings value="true"/>
        <ignore-errors value="true"/>
        <no-step-log value="true"/>
    </report>

</configuration>
-->

<routes xmlns:xsi="http://www.w3.org/2001/XMLSchema-instance" xsi:noNamespaceSchemaLocation="http://sumo.dlr.de/xsd/routes_file.xsd">
    <trip id="0" depart="0.00" from="E5" to="E3"/>
    <trip id="1" depart="1.00" from="-E4" to="E3"/>
    <trip id="2" depart="2.00" from="-E4" to="E3"/>
    <trip id="3" depart="2.00" from="E1" to="-E5"/>
    <trip id="4" depart="3.00" from="-E3" to="-E5"/>
    <trip id="5" depart="3.00" from="E5" to="E3"/>
    <trip id="6" depart="3.00" from="E1" to="E4"/>
    <trip id="7" depart="3.00" from="-E4" to="-E1"/>
    <trip id="8" depart="4.00" from="-E3" to="E4"/>
    <trip id="9" depart="4.00" from="E1" to="E4"/>
    <trip id="11" depart="4.00" from="E1" to="E3"/>
    <trip id="13" depart="7.00" from="-E3" to="-E5"/>
    <trip id="15" depart="8.00" from="-E3" to="-E1"/>
    <trip id="16" depart="8.00" from="E1" to="E4"/>
    <trip id="18" depart="10.00" from="-E3" to="E4"/>
    <trip id="19" depart="11.00" from="-E3" to="-E5"/>
    <trip id="20" depart="11.00" from="E1" to="E4"/>
    <trip id="21" depart="13.00" from="E5" to="E3"/>
    <trip id="23" depart="13.00" from="E1" to="E3"/>
    <trip id="24" depart="14.00" from="E1" to="E4"/>
    <trip id="25" depart="14.00" from="E1" to="E4"/>
    <trip id="26" depart="15.00" from="-E3" to="-E1"/>
    <trip id="27" depart="15.00" from="-E4" to="-E1"/>
    <trip id="28" depart="16.00" from="-E3" to="-E1"/>
    <trip id="29" depart="17.00" from="E5" to="-E1"/>
    <trip id="30" depart="18.00" from="-E3" to="-E1"/>
    <trip id="31" depart="18.00" from="E1" to="E3"/>
    <trip id="32" depart="20.00" from="E5" to="-E1"/>
    <trip id="33" depart="20.00" from="-E3" to="-E5"/>
    <trip id="37" depart="23.00" from="-E3" to="-E5"/>
    <trip id="38" depart="23.00" from="E5" to="E4"/>
    <trip id="41" depart="25.00" from="-E4" to="-E5"/>
    <trip id="43" depart="27.00" from="-E3" to="-E1"/>
    <trip id="44" depart="27.00" from="E1" to="E4"/>
    <trip id="45" depart="28.00" from="-E3" to="-E1"/>
    <trip id="46" depart="30.00" from="E1" to="E3"/>
    <trip id="47" depart="30.00" from="-E3" to="-E1"/>
    <trip id="50" depart="32.00" from="-E4" to="E3"/>
    <trip id="52" depart="32.00" from="E1" to="E3"/>
    <trip id="56" depart="38.00" from="E5" to="E4"/>
    <trip id="57" depart="38.00" from="E5" to="E3"/>
    <trip id="58" depart="39.00" from="E5" to="-E1"/>
    <trip id="62" depart="44.00" from="-E4" to="-E5"/>
    <trip id="64" depart="46.00" from="-E3" to="-E5"/>
    <trip id="65" depart="46.00" from="-E4" to="-E5"/>
    <trip id="67" depart="48.00" from="-E3" to="E4"/>
    <trip id="68" depart="49.00" from="-E4" to="-E5"/>
    <trip id="70" depart="50.00" from="E1" to="-E5"/>
    <trip id="71" depart="51.00" from="-E4" to="E3"/>
    <trip id="72" depart="52.00" from="E1" to="E3"/>
    <trip id="74" depart="53.00" from="-E3" to="E4"/>
    <trip id="75" depart="53.00" from="E5" to="E3"/>
    <trip id="76" depart="54.00" from="-E3" to="-E5"/>
    <trip id="77" depart="55.00" from="E1" to="-E5"/>
    <trip id="78" depart="55.00" from="-E3" to="-E5"/>
    <trip id="79" depart="57.00" from="E1" to="-E5"/>
    <trip id="81" depart="58.00" from="E1" to="E3"/>
    <trip id="83" depart="59.00" from="-E3" to="-E1"/>
    <trip id="84" depart="60.00" from="-E4" to="-E5"/>
    <trip id="85" depart="61.00" from="-E4" to="E3"/>
    <trip id="86" depart="61.00" from="E5" to="-E1"/>
    <trip id="87" depart="61.00" from="-E3" to="-E1"/>
    <trip id="88" depart="61.00" from="-E4" to="-E1"/>
    <trip id="90" depart="62.00" from="E1" to="-E5"/>
    <trip id="91" depart="63.00" from="-E4" to="-E5"/>
    <trip id="93" depart="65.00" from="-E4" to="-E5"/>
    <trip id="94" depart="66.00" from="E5" to="-E1"/>
    <trip id="95" depart="67.00" from="E5" to="E3"/>
    <trip id="96" depart="67.00" from="-E3" to="-E5"/>
    <trip id="97" depart="68.00" from="E5" to="E3"/>
    <trip id="99" depart="69.00" from="E1" to="E3"/>
    <trip id="100" depart="69.00" from="E5" to="E3"/>
    <trip id="101" depart="70.00" from="-E4" to="-E1"/>
    <trip id="102" depart="70.00" from="-E4" to="-E5"/>
    <trip id="103" depart="70.00" from="E5" to="-E1"/>
    <trip id="104" depart="71.00" from="-E3" to="-E1"/>
    <trip id="105" depart="72.00" from="-E4" to="E3"/>
    <trip id="106" depart="75.00" from="E5" to="E3"/>
    <trip id="107" depart="75.00" from="-E4" to="-E1"/>
    <trip id="108" depart="76.00" from="-E4" to="-E1"/>
    <trip id="109" depart="76.00" from="E5" to="E3"/>
    <trip id="110" depart="77.00" from="-E3" to="E4"/>
    <trip id="111" depart="77.00" from="-E3" to="-E5"/>
    <trip id="112" depart="77.00" from="-E4" to="-E5"/>
    <trip id="114" depart="80.00" from="E1" to="E3"/>
    <trip id="115" depart="80.00" from="E5" to="E4"/>
    <trip id="116" depart="80.00" from="-E3" to="-E1"/>
    <trip id="117" depart="81.00" from="E1" to="E4"/>
    <trip id="119" depart="82.00" from="-E4" to="-E1"/>
    <trip id="120" depart="82.00" from="E5" to="E3"/>
    <trip id="123" depart="85.00" from="-E4" to="-E5"/>
    <trip id="124" depart="85.00" from="-E3" to="-E5"/>
    <trip id="126" depart="86.00" from="-E4" to="-E1"/>
    <trip id="127" depart="88.00" from="-E4" to="-E1"/>
    <trip id="128" depart="88.00" from="E5" to="E3"/>
    <trip id="129" depart="88.00" from="E5" to="E4"/>
    <trip id="131" depart="89.00" from="-E3" to="-E1"/>
    <trip id="132" depart="89.00" from="E5" to="-E1"/>
    <trip id="133" depart="90.00" from="E1" to="-E5"/>
    <trip id="134" depart="92.00" from="-E4" to="-E5"/>
    <trip id="135" depart="93.00" from="E5" to="E4"/>
    <trip id="137" depart="94.00" from="-E4" to="-E5"/>
    <trip id="139" depart="96.00" from="-E3" to="-E5"/>
    <trip id="140" depart="96.00" from="-E4" to="-E1"/>
    <trip id="142" depart="97.00" from="-E4" to="E3"/>
    <trip id="143" depart="98.00" from="-E3" to="E4"/>
    <trip id="144" depart="99.00" from="E1" to="E4"/>
    <trip id="145" depart="99.00" from="-E3" to="-E5"/>
    <trip id="147" depart="100.00" from="E5" to="E3"/>
    <trip id="148" depart="100.00" from="-E3" to="-E5"/>
    <trip id="149" depart="100.00" from="-E3" to="-E1"/>
    <trip id="150" depart="104.00" from="-E3" to="-E1"/>
    <trip id="151" depart="105.00" from="E5" to="E3"/>
    <trip id="152" depart="105.00" from="-E3" to="E4"/>
    <trip id="154" depart="106.00" from="E1" to="E4"/>
    <trip id="155" depart="107.00" from="-E3" to="-E5"/>
    <trip id="156" depart="107.00" from="E5" to="E4"/>
    <trip id="161" depart="110.00" from="E1" to="-E5"/>
    <trip id="162" depart="110.00" from="-E3" to="-E5"/>
    <trip id="163" depart="110.00" from="-E3" to="E4"/>
    <trip id="164" depart="111.00" from="-E4" to="E3"/>
    <trip id="165" depart="111.00" from="E5" to="-E1"/>
    <trip id="166" depart="112.00" from="E5" to="E4"/>
    <trip id="167" depart="112.00" from="E1" to="E3"/>
    <trip id="168" depart="112.00" from="-E4" to="-E5"/>
    <trip id="170" depart="113.00" from="-E4" to="-E1"/>
    <trip id="171" depart="114.00" from="-E4" to="-E1"/>
    <trip id="172" depart="115.00" from="E5" to="E3"/>
    <trip id="173" depart="115.00" from="E1" to="E3"/>
    <trip id="174" depart="116.00" from="E5" to="-E1"/>
    <trip id="175" depart="117.00" from="E5" to="E4"/>
    <trip id="176" depart="117.00" from="-E3" to="-E5"/>
    <trip id="178" depart="118.00" from="-E3" to="-E5"/>
    <trip id="179" depart="118.00" from="E5" to="E4"/>
    <trip id="181" depart="120.00" from="E5" to="E4"/>
    <trip id="182" depart="122.00" from="-E3" to="-E5"/>
    <trip id="184" depart="124.00" from="E1" to="E3"/>
    <trip id="185" depart="124.00" from="-E3" to="-E5"/>
    <trip id="186" depart="125.00" from="E1" to="-E5"/>
    <trip id="187" depart="127.00" from="E5" to="-E1"/>
    <trip id="189" depart="127.00" from="E1" to="E3"/>
    <trip id="190" depart="128.00" from="E1" to="E4"/>
    <trip id="191" depart="129.00" from="-E4" to="E3"/>
    <trip id="192" depart="129.00" from="-E3" to="-E5"/>
    <trip id="193" depart="129.00" from="E1" to="E3"/>
    <trip id="195" depart="130.00" from="E1" to="-E5"/>
    <trip id="196" depart="131.00" from="E5" to="-E1"/>
    <trip id="197" depart="131.00" from="-E4" to="E3"/>
    <trip id="198" depart="133.00" from="E1" to="E3"/>
    <trip id="199" depart="134.00" from="E1" to="E4"/>
    <trip id="200" depart="135.00" from="-E3" to="-E5"/>
    <trip id="201" depart="137.00" from="E5" to="E4"/>
    <trip id="202" depart="137.00" from="-E4" to="-E5"/>
    <trip id="204" depart="140.00" from="E5" to="-E1"/>
    <trip id="205" depart="142.00" from="-E3" to="E4"/>
    <trip id="206" depart="142.00" from="E1" to="-E5"/>
    <trip id="207" depart="143.00" from="-E3" to="E4"/>
    <trip id="208" depart="144.00" from="E1" to="-E5"/>
    <trip id="209" depart="145.00" from="E1" to="E4"/>
    <trip id="210" depart="145.00" from="-E4" to="-E5"/>
    <trip id="211" depart="146.00" from="E5" to="E3"/>
    <trip id="213" depart="147.00" from="E1" to="-E5"/>
    <trip id="216" depart="149.00" from="E5" to="E3"/>
    <trip id="217" depart="149.00" from="E1" to="E4"/>
    <trip id="219" depart="150.00" from="-E3" to="-E5"/>
    <trip id="221" depart="151.00" from="-E3" to="E4"/>
    <trip id="222" depart="152.00" from="-E4" to="E3"/>
    <trip id="223" depart="152.00" from="-E4" to="-E5"/>
    <trip id="224" depart="153.00" from="-E4" to="-E5"/>
    <trip id="225" depart="153.00" from="E1" to="E3"/>
    <trip id="227" depart="153.00" from="-E3" to="-E5"/>
    <trip id="228" depart="154.00" from="-E3" to="-E5"/>
    <trip id="229" depart="154.00" from="-E3" to="-E1"/>
    <trip id="232" depart="156.00" from="-E4" to="-E1"/>
    <trip id="234" depart="158.00" from="E1" to="E4"/>
    <trip id="235" depart="159.00" from="E5" to="E4"/>
    <trip id="236" depart="159.00" from="-E4" to="-E1"/>
    <trip id="237" depart="160.00" from="-E3" to="-E1"/>
    <trip id="238" depart="161.00" from="-E3" to="E4"/>
    <trip id="242" depart="165.00" from="-E3" to="-E1"/>
    <trip id="243" depart="165.00" from="-E3" to="-E5"/>
    <trip id="246" depart="166.00" from="-E4" to="E3"/>
    <trip id="248" depart="167.00" from="-E3" to="-E1"/>
    <trip id="249" depart="167.00" from="E1" to="E3"/>
    <trip id="250" depart="168.00" from="E1" to="E3"/>
    <trip id="254" depart="171.00" from="E5" to="E4"/>
    <trip id="255" depart="172.00" from="E5" to="E3"/>
    <trip id="257" depart="173.00" from="-E4" to="E3"/>
    <trip id="261" depart="175.00" from="E5" to="-E1"/>
    <trip id="262" depart="176.00" from="E1" to="E4"/>
    <trip id="263" depart="177.00" from="-E4" to="-E5"/>
    <trip id="264" depart="177.00" from="E1" to="E3"/>
    <trip id="267" depart="179.00" from="-E3" to="E4"/>
    <trip id="268" depart="179.00" from="-E3" to="E4"/>
    <trip id="269" depart="180.00" from="-E4" to="-E5"/>
    <trip id="270" depart="181.00" from="-E4" to="-E1"/>
    <trip id="272" depart="183.00" from="E5" to="-E1"/>
    <trip id="274" depart="184.00" from="E1" to="-E5"/>
    <trip id="275" depart="185.00" from="-E3" to="-E1"/>
    <trip id="276" depart="185.00" from="-E4" to="E3"/>
    <trip id="279" depart="187.00" from="E1" to="E3"/>
    <trip id="280" depart="188.00" from="E1" to="E4"/>
    <trip id="281" depart="189.00" from="-E3" to="E4"/>
    <trip id="282" depart="189.00" from="-E4" to="-E5"/>
    <trip id="284" depart="190.00" from="-E4" to="E3"/>
    <trip id="285" depart="191.00" from="E5" to="E3"/>
    <trip id="287" depart="192.00" from="-E3" to="E4"/>
    <trip id="291" depart="194.00" from="-E4" to="-E1"/>
    <trip id="292" depart="194.00" from="-E4" to="E3"/>
    <trip id="293" depart="198.00" from="E1" to="E3"/>
    <trip id="294" depart="198.00" from="-E3" to="-E5"/>
    <trip id="296" depart="201.00" from="-E4" to="-E1"/>
    <trip id="298" depart="201.00" from="-E4" to="-E1"/>
    <trip id="299" depart="202.00" from="-E3" to="E4"/>
    <trip id="300" depart="203.00" from="-E4" to="-E1"/>
    <trip id="301" depart="204.00" from="E1" to="-E5"/>
    <trip id="302" depart="205.00" from="-E4" to="E3"/>
    <trip id="303" depart="206.00" from="-E3" to="E4"/>
    <trip id="305" depart="207.00" from="-E3" to="-E1"/>
    <trip id="306" depart="207.00" from="E1" to="-E5"/>
    <trip id="307" depart="208.00" from="-E3" to="-E5"/>
    <trip id="308" depart="208.00" from="E5" to="E3"/>
    <trip id="309" depart="208.00" from="-E3" to="-E1"/>
    <trip id="310" depart="209.00" from="-E4" to="E3"/>
    <trip id="311" depart="210.00" from="E5" to="-E1"/>
    <trip id="312" depart="210.00" from="-E4" to="-E5"/>
    <trip id="313" depart="211.00" from="E5" to="E3"/>
    <trip id="316" depart="213.00" from="-E3" to="E4"/>
    <trip id="320" depart="215.00" from="-E3" to="-E1"/>
    <trip id="321" depart="215.00" from="E5" to="E4"/>
    <trip id="322" depart="216.00" from="-E4" to="-E5"/>
    <trip id="323" depart="217.00" from="E5" to="-E1"/>
    <trip id="324" depart="218.00" from="-E4" to="E3"/>
    <trip id="325" depart="219.00" from="E5" to="E3"/>
    <trip id="326" depart="220.00" from="-E3" to="E4"/>
    <trip id="327" depart="222.00" from="E1" to="-E5"/>
    <trip id="329" depart="224.00" from="-E4" to="E3"/>
    <trip id="332" depart="225.00" from="E5" to="E4"/>
    <trip id="334" depart="226.00" from="-E3" to="E4"/>
    <trip id="335" depart="226.00" from="-E3" to="E4"/>
    <trip id="338" depart="230.00" from="-E4" to="E3"/>
    <trip id="339" depart="231.00" from="-E4" to="-E5"/>
    <trip id="340" depart="231.00" from="E5" to="E4"/>
    <trip id="341" depart="232.00" from="-E3" to="E4"/>
    <trip id="343" depart="232.00" from="-E3" to="-E5"/>
    <trip id="344" depart="233.00" from="-E3" to="-E5"/>
    <trip id="345" depart="233.00" from="E1" to="-E5"/>
    <trip id="346" depart="234.00" from="-E4" to="E3"/>
    <trip id="347" depart="234.00" from="-E4" to="-E1"/>
    <trip id="348" depart="234.00" from="E1" to="E3"/>
    <trip id="349" depart="235.00" from="-E4" to="-E1"/>
    <trip id="350" depart="239.00" from="E5" to="-E1"/>
    <trip id="353" depart="242.00" from="E5" to="E4"/>
    <trip id="354" depart="242.00" from="E5" to="-E1"/>
    <trip id="355" depart="243.00" from="E1" to="E3"/>
    <trip id="356" depart="244.00" from="E5" to="E3"/>
    <trip id="357" depart="245.00" from="E1" to="E4"/>
    <trip id="358" depart="245.00" from="-E3" to="-E1"/>
    <trip id="360" depart="248.00" from="E5" to="E3"/>
    <trip id="361" depart="249.00" from="-E3" to="E4"/>
    <trip id="364" depart="250.00" from="-E3" to="-E1"/>
    <trip id="366" depart="254.00" from="E1" to="E4"/>
    <trip id="367" depart="255.00" from="-E4" to="E3"/>
    <trip id="368" depart="256.00" from="E1" to="E3"/>
    <trip id="369" depart="257.00" from="E1" to="-E5"/>
    <trip id="371" depart="257.00" from="E5" to="-E1"/>
    <trip id="373" depart="258.00" from="-E4" to="-E5"/>
    <trip id="374" depart="259.00" from="E5" to="E3"/>
    <trip id="375" depart="259.00" from="-E3" to="E4"/>
    <trip id="376" depart="260.00" from="E5" to="E4"/>
    <trip id="377" depart="260.00" from="E5" to="E4"/>
    <trip id="378" depart="261.00" from="-E4" to="-E5"/>
    <trip id="379" depart="261.00" from="E1" to="-E5"/>
    <trip id="380" depart="262.00" from="E5" to="-E1"/>
    <trip id="381" depart="262.00" from="-E4" to="E3"/>
    <trip id="383" depart="264.00" from="E5" to="E3"/>
    <trip id="384" depart="264.00" from="-E3" to="-E1"/>
    <trip id="387" depart="266.00" from="E1" to="E3"/>
    <trip id="388" depart="266.00" from="-E3" to="-E1"/>
    <trip id="389" depart="267.00" from="E5" to="-E1"/>
    <trip id="391" depart="268.00" from="E1" to="E3"/>
    <trip id="393" depart="268.00" from="E1" to="-E5"/>
    <trip id="394" depart="269.00" from="-E3" to="-E1"/>
    <trip id="395" depart="270.00" from="-E3" to="-E5"/>
    <trip id="399" depart="273.00" from="-E3" to="E4"/>
    <trip id="400" depart="274.00" from="-E4" to="E3"/>
    <trip id="401" depart="274.00" from="E1" to="E4"/>
    <trip id="402" depart="275.00" from="E1" to="E3"/>
    <trip id="405" depart="276.00" from="E1" to="E3"/>
    <trip id="410" depart="283.00" from="-E3" to="-E5"/>
    <trip id="411" depart="284.00" from="E1" to="E3"/>
    <trip id="412" depart="286.00" from="-E3" to="-E5"/>
    <trip id="413" depart="287.00" from="-E4" to="E3"/>
    <trip id="414" depart="288.00" from="E1" to="-E5"/>
    <trip id="415" depart="290.00" from="E1" to="E4"/>
    <trip id="416" depart="290.00" from="E5" to="E3"/>
    <trip id="417" depart="292.00" from="E5" to="E4"/>
    <trip id="418" depart="292.00" from="-E4" to="-E1"/>
    <trip id="420" depart="293.00" from="E5" to="E3"/>
    <trip id="421" depart="294.00" from="-E3" to="-E5"/>
    <trip id="422" depart="295.00" from="-E4" to="-E5"/>
    <trip id="425" depart="298.00" from="E1" to="-E5"/>
    <trip id="426" depart="299.00" from="-E4" to="E3"/>
    <trip id="427" depart="300.00" from="-E3" to="-E5"/>
    <trip id="428" depart="301.00" from="E5" to="E4"/>
    <trip id="429" depart="302.00" from="E5" to="E4"/>
    <trip id="430" depart="303.00" from="-E3" to="-E1"/>
    <trip id="431" depart="303.00" from="E5" to="-E1"/>
    <trip id="433" depart="305.00" from="-E3" to="-E1"/>
    <trip id="435" depart="306.00" from="E1" to="E4"/>
    <trip id="436" depart="307.00" from="E1" to="-E5"/>
    <trip id="437" depart="308.00" from="E5" to="E4"/>
    <trip id="438" depart="308.00" from="E5" to="E4"/>
    <trip id="440" depart="309.00" from="E1" to="E4"/>
    <trip id="441" depart="310.00" from="E5" to="E4"/>
    <trip id="442" depart="311.00" from="-E4" to="-E5"/>
    <trip id="444" depart="312.00" from="-E3" to="E4"/>
    <trip id="445" depart="312.00" from="-E3" to="-E5"/>
    <trip id="446" depart="313.00" from="-E3" to="-E1"/>
    <trip id="447" depart="314.00" from="E5" to="-E1"/>
    <trip id="448" depart="314.00" from="-E4" to="E3"/>
    <trip id="449" depart="315.00" from="E1" to="E3"/>
    <trip id="450" depart="315.00" from="-E3" to="E4"/>
    <trip id="452" depart="316.00" from="E1" to="E4"/>
    <trip id="453" depart="317.00" from="E1" to="-E5"/>
    <trip id="454" depart="318.00" from="E5" to="E4"/>
    <trip id="455" depart="318.00" from="E1" to="E3"/>
    <trip id="457" depart="320.00" from="E1" to="E4"/>
    <trip id="458" depart="320.00" from="-E3" to="-E5"/>
    <trip id="459" depart="321.00" from="E1" to="-E5"/>
    <trip id="461" depart="322.00" from="E1" to="-E5"/>
    <trip id="464" depart="324.00" from="-E4" to="-E5"/>
    <trip id="467" depart="325.00" from="-E4" to="-E5"/>
    <trip id="468" depart="325.00" from="-E3" to="E4"/>
    <trip id="469" depart="326.00" from="-E4" to="E3"/>
    <trip id="471" depart="328.00" from="-E4" to="-E1"/>
    <trip id="473" depart="330.00" from="-E3" to="-E1"/>
    <trip id="475" depart="331.00" from="-E4" to="E3"/>
    <trip id="476" depart="331.00" from="-E3" to="E4"/>
    <trip id="478" depart="333.00" from="E1" to="E3"/>
    <trip id="479" depart="333.00" from="E1" to="E4"/>
    <trip id="480" depart="334.00" from="-E4" to="-E5"/>
    <trip id="483" depart="336.00" from="-E4" to="-E1"/>
    <trip id="484" depart="337.00" from="-E3" to="-E5"/>
    <trip id="485" depart="337.00" from="-E4" to="-E1"/>
    <trip id="487" depart="338.00" from="-E3" to="-E5"/>
    <trip id="488" depart="339.00" from="-E3" to="-E1"/>
    <trip id="489" depart="341.00" from="-E3" to="-E5"/>
    <trip id="490" depart="342.00" from="-E4" to="-E1"/>
    <trip id="491" depart="343.00" from="-E3" to="-E1"/>
    <trip id="492" depart="344.00" from="E1" to="E3"/>
    <trip id="495" depart="345.00" from="-E4" to="-E1"/>
    <trip id="496" depart="346.00" from="-E3" to="-E1"/>
    <trip id="497" depart="347.00" from="-E3" to="E4"/>
    <trip id="498" depart="347.00" from="-E3" to="-E1"/>
    <trip id="499" depart="348.00" from="-E4" to="-E5"/>
    <trip id="501" depart="349.00" from="E1" to="E3"/>
    <trip id="502" depart="350.00" from="-E4" to="-E5"/>
    <trip id="503" depart="350.00" from="-E4" to="-E1"/>
    <trip id="505" depart="351.00" from="-E3" to="-E1"/>
    <trip id="506" depart="351.00" from="E5" to="-E1"/>
    <trip id="508" depart="352.00" from="-E3" to="-E1"/>
    <trip id="512" depart="355.00" from="-E3" to="-E1"/>
    <trip id="513" depart="356.00" from="E5" to="-E1"/>
    <trip id="515" depart="356.00" from="-E4" to="-E1"/>
    <trip id="516" depart="357.00" from="E1" to="-E5"/>
    <trip id="518" depart="357.00" from="-E4" to="-E1"/>
    <trip id="519" depart="358.00" from="-E4" to="-E5"/>
    <trip id="520" depart="360.00" from="-E3" to="-E5"/>
    <trip id="521" depart="360.00" from="E1" to="E3"/>
    <trip id="522" depart="361.00" from="-E4" to="-E5"/>
    <trip id="523" depart="361.00" from="E5" to="-E1"/>
    <trip id="524" depart="361.00" from="E1" to="E3"/>
    <trip id="525" depart="362.00" from="E5" to="E4"/>
    <trip id="526" depart="362.00" from="-E3" to="E4"/>
    <trip id="527" depart="362.00" from="E1" to="-E5"/>
    <trip id="528" depart="363.00" from="-E3" to="-E1"/>
    <trip id="530" depart="364.00" from="-E4" to="-E5"/>
    <trip id="531" depart="365.00" from="E1" to="E3"/>
    <trip id="532" depart="365.00" from="E5" to="E3"/>
    <trip id="533" depart="367.00" from="E1" to="E3"/>
    <trip id="534" depart="368.00" from="-E3" to="E4"/>
    <trip id="535" depart="369.00" from="-E4" to="-E5"/>
    <trip id="536" depart="369.00" from="-E4" to="-E5"/>
    <trip id="537" depart="369.00" from="-E3" to="-E1"/>
    <trip id="538" depart="370.00" from="E5" to="E4"/>
    <trip id="539" depart="370.00" from="-E4" to="-E1"/>
    <trip id="541" depart="371.00" from="E1" to="-E5"/>
    <trip id="542" depart="372.00" from="E5" to="E3"/>
    <trip id="543" depart="374.00" from="E5" to="E4"/>
    <trip id="544" depart="374.00" from="E5" to="E4"/>
    <trip id="545" depart="374.00" from="E1" to="E4"/>
    <trip id="547" depart="376.00" from="E1" to="-E5"/>
    <trip id="548" depart="377.00" from="-E3" to="-E1"/>
    <trip id="549" depart="377.00" from="-E3" to="-E5"/>
    <trip id="550" depart="378.00" from="E5" to="E3"/>
    <trip id="551" depart="379.00" from="-E4" to="E3"/>
    <trip id="553" depart="380.00" from="E5" to="E3"/>
    <trip id="554" depart="381.00" from="E1" to="-E5"/>
    <trip id="555" depart="381.00" from="E1" to="E4"/>
    <trip id="557" depart="382.00" from="-E3" to="-E5"/>
    <trip id="558" depart="382.00" from="E5" to="E4"/>
    <trip id="559" depart="382.00" from="-E4" to="-E5"/>
    <trip id="560" depart="383.00" from="-E3" to="-E1"/>
    <trip id="561" depart="384.00" from="E5" to="E4"/>
    <trip id="562" depart="385.00" from="-E4" to="E3"/>
    <trip id="563" depart="386.00" from="E1" to="-E5"/>
    <trip id="567" depart="389.00" from="E1" to="-E5"/>
    <trip id="568" depart="390.00" from="-E3" to="-E1"/>
    <trip id="570" depart="392.00" from="E1" to="E4"/>
    <trip id="572" depart="394.00" from="-E3" to="-E5"/>
    <trip id="573" depart="394.00" from="E1" to="-E5"/>
    <trip id="574" depart="395.00" from="E5" to="-E1"/>
    <trip id="575" depart="396.00" from="-E4" to="-E1"/>
    <trip id="578" depart="400.00" from="-E3" to="-E1"/>
    <trip id="579" depart="400.00" from="-E3" to="-E1"/>
    <trip id="582" depart="404.00" from="-E4" to="-E5"/>
    <trip id="584" depart="405.00" from="-E4" to="-E1"/>
    <trip id="585" depart="405.00" from="E5" to="E4"/>
    <trip id="586" depart="406.00" from="-E3" to="-E5"/>
    <trip id="587" depart="407.00" from="-E3" to="E4"/>
    <trip id="588" depart="407.00" from="E1" to="E4"/>
    <trip id="590" depart="408.00" from="-E3" to="-E1"/>
    <trip id="591" depart="408.00" from="-E3" to="E4"/>
    <trip id="592" depart="409.00" from="E5" to="-E1"/>
    <trip id="593" depart="409.00" from="E1" to="E3"/>
    <trip id="594" depart="413.00" from="E1" to="E3"/>
    <trip id="595" depart="413.00" from="E5" to="E4"/>
    <trip id="596" depart="414.00" from="-E4" to="-E5"/>
    <trip id="598" depart="416.00" from="E1" to="-E5"/>
    <trip id="599" depart="417.00" from="E5" to="E4"/>
    <trip id="600" depart="417.00" from="-E3" to="-E5"/>
    <trip id="601" depart="418.00" from="E1" to="-E5"/>
    <trip id="602" depart="419.00" from="E5" to="E3"/>
    <trip id="606" depart="423.00" from="-E4" to="-E1"/>
    <trip id="608" depart="423.00" from="-E3" to="-E1"/>
    <trip id="609" depart="425.00" from="-E4" to="-E1"/>
    <trip id="611" depart="426.00" from="-E4" to="-E5"/>
    <trip id="612" depart="427.00" from="-E3" to="-E5"/>
    <trip id="613" depart="428.00" from="E1" to="E3"/>
    <trip id="614" depart="428.00" from="-E4" to="E3"/>
    <trip id="616" depart="429.00" from="-E4" to="-E5"/>
    <trip id="617" depart="429.00" from="E1" to="E3"/>
    <trip id="619" depart="430.00" from="E1" to="E4"/>
    <trip id="620" depart="430.00" from="-E4" to="-E5"/>
    <trip id="621" depart="431.00" from="E1" to="E4"/>
    <trip id="622" depart="432.00" from="E5" to="E3"/>
    <trip id="623" depart="432.00" from="E1" to="E3"/>
    <trip id="624" depart="434.00" from="E5" to="E3"/>
    <trip id="625" depart="434.00" from="E1" to="E4"/>
    <trip id="626" depart="435.00" from="E5" to="E3"/>
    <trip id="627" depart="436.00" from="E1" to="-E5"/>
    <trip id="628" depart="436.00" from="E5" to="E3"/>
    <trip id="629" depart="437.00" from="E5" to="E4"/>
    <trip id="630" depart="438.00" from="E5" to="E3"/>
    <trip id="631" depart="438.00" from="E1" to="-E5"/>
    <trip id="633" depart="440.00" from="-E4" to="E3"/>
    <trip id="634" depart="440.00" from="-E4" to="-E5"/>
    <trip id="636" depart="441.00" from="-E3" to="-E1"/>
    <trip id="637" depart="442.00" from="E1" to="-E5"/>
    <trip id="638" depart="442.00" from="-E3" to="-E1"/>
    <trip id="639" depart="443.00" from="-E4" to="E3"/>
    <trip id="640" depart="444.00" from="-E4" to="-E1"/>
    <trip id="641" depart="444.00" from="-E4" to="E3"/>
    <trip id="642" depart="445.00" from="E5" to="E3"/>
    <trip id="645" depart="447.00" from="-E3" to="-E5"/>
    <trip id="646" depart="447.00" from="-E4" to="-E5"/>
    <trip id="647" depart="447.00" from="-E3" to="-E1"/>
    <trip id="648" depart="448.00" from="E5" to="-E1"/>
    <trip id="649" depart="448.00" from="E1" to="-E5"/>
    <trip id="650" depart="449.00" from="-E3" to="-E5"/>
    <trip id="651" depart="450.00" from="E1" to="-E5"/>
    <trip id="652" depart="451.00" from="-E4" to="-E5"/>
    <trip id="653" depart="451.00" from="E1" to="E3"/>
    <trip id="655" depart="456.00" from="-E3" to="-E1"/>
    <trip id="656" depart="456.00" from="E1" to="E3"/>
    <trip id="657" depart="458.00" from="-E4" to="E3"/>
    <trip id="658" depart="459.00" from="-E4" to="E3"/>
    <trip id="659" depart="459.00" from="E5" to="E3"/>
    <trip id="660" depart="460.00" from="E5" to="-E1"/>
    <trip id="661" depart="460.00" from="E5" to="-E1"/>
    <trip id="662" depart="461.00" from="-E4" to="-E1"/>
    <trip id="663" depart="462.00" from="E5" to="E4"/>
    <trip id="664" depart="462.00" from="-E3" to="E4"/>
    <trip id="665" depart="463.00" from="-E4" to="E3"/>
    <trip id="666" depart="463.00" from="-E3" to="E4"/>
    <trip id="667" depart="464.00" from="E1" to="E3"/>
    <trip id="669" depart="464.00" from="E1" to="-E5"/>
    <trip id="670" depart="464.00" from="E5" to="-E1"/>
    <trip id="671" depart="465.00" from="E5" to="-E1"/>
    <trip id="674" depart="470.00" from="E1" to="E3"/>
    <trip id="676" depart="472.00" from="E5" to="E3"/>
    <trip id="680" depart="475.00" from="E1" to="-E5"/>
    <trip id="681" depart="476.00" from="E1" to="E4"/>
    <trip id="682" depart="476.00" from="E1" to="E4"/>
    <trip id="683" depart="478.00" from="E5" to="E4"/>
    <trip id="685" depart="481.00" from="E1" to="-E5"/>
    <trip id="686" depart="481.00" from="E5" to="E4"/>
    <trip id="688" depart="482.00" from="-E3" to="-E1"/>
    <trip id="689" depart="482.00" from="-E4" to="E3"/>
    <trip id="690" depart="482.00" from="E5" to="E3"/>
    <trip id="691" depart="483.00" from="-E3" to="E4"/>
    <trip id="692" depart="485.00" from="-E3" to="-E5"/>
    <trip id="693" depart="487.00" from="E5" to="-E1"/>