<?xml version="1.0" encoding="UTF-8"?>

<!-- generated on 2024-05-28 20:33:18.250418 by randomTrips.py v1_14_1+0000-f654d7b963e
<configuration>
    <end value="3600"/>
    <lanes value="True"/>
    <min-distance value="50.0"/>
    <net-file value="osm.net.xml"/>
    <period value="6.0"/>
    <route-file value="osm.passenger.rou.xml"/>
    <output-trip-file value="osm.passenger.trips.xml"/>
    <prefix value="veh"/>
    <validate value="True"/>
    <vehicle-class value="passenger"/>
</configuration>
-->

<!-- generated on 2024-05-28 20:33:18 by Eclipse SUMO duarouter Version 1.14.1
<configuration xmlns:xsi="http://www.w3.org/2001/XMLSchema-instance" xsi:noNamespaceSchemaLocation="http://sumo.dlr.de/xsd/duarouterConfiguration.xsd">

    <input>
        <net-file value="osm.net.xml"/>
        <route-files value="osm.passenger.trips.xml"/>
    </input>

    <output>
        <output-file value="osm.passenger.rou.xml"/>
        <alternatives-output value="NUL"/>
    </output>

    <time>
        <begin value="0"/>
        <end value="3600"/>
    </time>

    <report>
        <no-warnings value="true"/>
        <ignore-errors value="true"/>
        <no-step-log value="true"/>
    </report>

</configuration>
-->

<routes xmlns:xsi="http://www.w3.org/2001/XMLSchema-instance" xsi:noNamespaceSchemaLocation="http://sumo.dlr.de/xsd/routes_file.xsd">
    <vType id="veh_passenger" vClass="passenger"/>
    <vehicle id="veh0" type="veh_passenger" depart="0.00">
        <route edges="-E4 -E1"/>
    </vehicle>
    <vehicle id="veh1" type="veh_passenger" depart="6.00">
        <route edges="E1 E3"/>
    </vehicle>
    <vehicle id="veh2" type="veh_passenger" depart="12.00">
        <route edges="E5 -E1"/>
    </vehicle>
    <vehicle id="veh3" type="veh_passenger" depart="18.00">
        <route edges="-E4 -E1"/>
    </vehicle>
    <vehicle id="veh4" type="veh_passenger" depart="24.00">
        <route edges="-E3 -E1"/>
    </vehicle>
    <vehicle id="veh5" type="veh_passenger" depart="30.00">
        <route edges="E1 E3"/>
    </vehicle>
    <vehicle id="veh6" type="veh_passenger" depart="36.00">
        <route edges="E5 -E1"/>
    </vehicle>
    <vehicle id="veh7" type="veh_passenger" depart="42.00">
        <route edges="E5 E3"/>
    </vehicle>
    <vehicle id="veh8" type="veh_passenger" depart="48.00">
        <route edges="-E4 -E1"/>
    </vehicle>
    <vehicle id="veh9" type="veh_passenger" depart="54.00">
        <route edges="-E3 -E1"/>
    </vehicle>
    <vehicle id="veh10" type="veh_passenger" depart="60.00">
        <route edges="E5 E3"/>
    </vehicle>
    <vehicle id="veh11" type="veh_passenger" depart="66.00">
        <route edges="E5 E3"/>
    </vehicle>
    <vehicle id="veh12" type="veh_passenger" depart="72.00">
        <route edges="E1 E4"/>
    </vehicle>
    <vehicle id="veh13" type="veh_passenger" depart="78.00">
        <route edges="-E4 E3"/>
    </vehicle>
    <vehicle id="veh14" type="veh_passenger" depart="84.00">
        <route edges="E5 E3"/>
    </vehicle>
    <vehicle id="veh15" type="veh_passenger" depart="90.00">
        <route edges="E5 E3"/>
    </vehicle>
    <vehicle id="veh16" type="veh_passenger" depart="96.00">
        <route edges="-E3 -E5"/>
    </vehicle>
    <vehicle id="veh17" type="veh_passenger" depart="102.00">
        <route edges="-E3 -E1"/>
    </vehicle>
    <vehicle id="veh18" type="veh_passenger" depart="108.00">
        <route edges="-E3 -E5"/>
    </vehicle>
    <vehicle id="veh19" type="veh_passenger" depart="114.00">
        <route edges="E1 -E5"/>
    </vehicle>
    <vehicle id="veh20" type="veh_passenger" depart="120.00">
        <route edges="-E4 -E1"/>
    </vehicle>
    <vehicle id="veh21" type="veh_passenger" depart="126.00">
        <route edges="E1 E3"/>
    </vehicle>
    <vehicle id="veh22" type="veh_passenger" depart="132.00">
        <route edges="-E3 -E5"/>
    </vehicle>
    <vehicle id="veh23" type="veh_passenger" depart="138.00">
        <route edges="E5 E3"/>
    </vehicle>
    <vehicle id="veh24" type="veh_passenger" depart="144.00">
        <route edges="E1 E3"/>
    </vehicle>
    <vehicle id="veh25" type="veh_passenger" depart="150.00">
        <route edges="E5 E4"/>
    </vehicle>
    <vehicle id="veh26" type="veh_passenger" depart="156.00">
        <route edges="-E3 -E1"/>
    </vehicle>
    <vehicle id="veh27" type="veh_passenger" depart="162.00">
        <route edges="-E4 -E5"/>
    </vehicle>
    <vehicle id="veh28" type="veh_passenger" depart="168.00">
        <route edges="-E3 E4"/>
    </vehicle>
    <vehicle id="veh29" type="veh_passenger" depart="174.00">
        <route edges="E1 -E5"/>
    </vehicle>
    <vehicle id="veh30" type="veh_passenger" depart="180.00">
        <route edges="-E4 -E1"/>
    </vehicle>
    <vehicle id="veh31" type="veh_passenger" depart="186.00">
        <route edges="E1 -E5"/>
    </vehicle>
    <vehicle id="veh32" type="veh_passenger" depart="192.00">
        <route edges="E1 E4"/>
    </vehicle>
    <vehicle id="veh33" type="veh_passenger" depart="198.00">
        <route edges="-E4 -E1"/>
    </vehicle>
    <vehicle id="veh34" type="veh_passenger" depart="204.00">
        <route edges="E5 E3"/>
    </vehicle>
    <vehicle id="veh35" type="veh_passenger" depart="210.00">
        <route edges="-E3 -E1"/>
    </vehicle>
    <vehicle id="veh36" type="veh_passenger" depart="216.00">
        <route edges="-E3 -E5"/>
    </vehicle>
    <vehicle id="veh37" type="veh_passenger" depart="222.00">
        <route edges="E5 E3"/>
    </vehicle>
    <vehicle id="veh38" type="veh_passenger" depart="228.00">
        <route edges="E5 E4"/>
    </vehicle>
    <vehicle id="veh39" type="veh_passenger" depart="234.00">
        <route edges="E1 E3"/>
    </vehicle>
    <vehicle id="veh40" type="veh_passenger" depart="240.00">
        <route edges="-E4 E3"/>
    </vehicle>
    <vehicle id="veh41" type="veh_passenger" depart="246.00">
        <route edges="-E3 -E5"/>
    </vehicle>
    <vehicle id="veh42" type="veh_passenger" depart="252.00">
        <route edges="E5 E4"/>
    </vehicle>
    <vehicle id="veh43" type="veh_passenger" depart="258.00">
        <route edges="-E4 E3"/>
    </vehicle>
    <vehicle id="veh44" type="veh_passenger" depart="264.00">
        <route edges="E5 E3"/>
    </vehicle>
    <vehicle id="veh45" type="veh_passenger" depart="270.00">
        <route edges="E5 E3"/>
    </vehicle>
    <vehicle id="veh46" type="veh_passenger" depart="276.00">
        <route edges="-E3 -E5"/>
    </vehicle>
    <vehicle id="veh47" type="veh_passenger" depart="282.00">
        <route edges="-E3 E4"/>
    </vehicle>
    <vehicle id="veh48" type="veh_passenger" depart="288.00">
        <route edges="E5 E4"/>
    </vehicle>
    <vehicle id="veh49" type="veh_passenger" depart="294.00">
        <route edges="-E4 -E1"/>
    </vehicle>
    <vehicle id="veh50" type="veh_passenger" depart="300.00">
        <route edges="E5 E4"/>
    </vehicle>
    <vehicle id="veh51" type="veh_passenger" depart="306.00">
        <route edges="-E3 -E5"/>
    </vehicle>
    <vehicle id="veh52" type="veh_passenger" depart="312.00">
        <route edges="-E3 E4"/>
    </vehicle>
    <vehicle id="veh53" type="veh_passenger" depart="318.00">
        <route edges="E5 -E1"/>
    </vehicle>
    <vehicle id="veh54" type="veh_passenger" depart="324.00">
        <route edges="-E4 E3"/>
    </vehicle>
    <vehicle id="veh55" type="veh_passenger" depart="330.00">
        <route edges="-E4 -E1"/>
    </vehicle>
    <vehicle id="veh56" type="veh_passenger" depart="336.00">
        <route edges="E1 E3"/>
    </vehicle>
    <vehicle id="veh57" type="veh_passenger" depart="342.00">
        <route edges="-E3 -E5"/>
    </vehicle>
    <vehicle id="veh58" type="veh_passenger" depart="348.00">
        <route edges="E5 E3"/>
    </vehicle>
    <vehicle id="veh59" type="veh_passenger" depart="354.00">
        <route edges="-E4 E3"/>
    </vehicle>
    <vehicle id="veh60" type="veh_passenger" depart="360.00">
        <route edges="-E3 -E1"/>
    </vehicle>
    <vehicle id="veh61" type="veh_passenger" depart="366.00">
        <route edges="-E4 E3"/>
    </vehicle>
    <vehicle id="veh62" type="veh_passenger" depart="372.00">
        <route edges="-E3 -E1"/>
    </vehicle>
    <vehicle id="veh63" type="veh_passenger" depart="378.00">
        <route edges="-E3 E4"/>
    </vehicle>
    <vehicle id="veh64" type="veh_passenger" depart="384.00">
        <route edges="E5 -E1"/>
    </vehicle>
    <vehicle id="veh65" type="veh_passenger" depart="390.00">
        <route edges="-E3 -E1"/>
    </vehicle>
    <vehicle id="veh66" type="veh_passenger" depart="396.00">
        <route edges="E5 E3"/>
    </vehicle>
    <vehicle id="veh67" type="veh_passenger" depart="402.00">
        <route edges="E5 -E1"/>
    </vehicle>
    <vehicle id="veh68" type="veh_passenger" depart="408.00">
        <route edges="-E3 -E5"/>
    </vehicle>
    <vehicle id="veh69" type="veh_passenger" depart="414.00">
        <route edges="-E4 -E5"/>
    </vehicle>
    <vehicle id="veh70" type="veh_passenger" depart="420.00">
        <route edges="E1 E3"/>
    </vehicle>
    <vehicle id="veh71" type="veh_passenger" depart="426.00">
        <route edges="E5 -E1"/>
    </vehicle>
    <vehicle id="veh72" type="veh_passenger" depart="432.00">
        <route edges="-E4 -E5"/>
    </vehicle>
    <vehicle id="veh73" type="veh_passenger" depart="438.00">
        <route edges="E5 -E1"/>
    </vehicle>
    <vehicle id="veh74" type="veh_passenger" depart="444.00">
        <route edges="-E3 -E5"/>
    </vehicle>
    <vehicle id="veh75" type="veh_passenger" depart="450.00">
        <route edges="-E4 -E5"/>
    </vehicle>
    <vehicle id="veh76" type="veh_passenger" depart="456.00">
        <route edges="-E3 E4"/>
    </vehicle>
    <vehicle id="veh77" type="veh_passenger" depart="462.00">
        <route edges="E5 E4"/>
    </vehicle>
    <vehicle id="veh78" type="veh_passenger" depart="468.00">
        <route edges="E5 E4"/>
    </vehicle>
    <vehicle id="veh79" type="veh_passenger" depart="474.00">
        <route edges="E5 -E1"/>
    </vehicle>
    <vehicle id="veh80" type="veh_passenger" depart="480.00">
        <route edges="-E4 -E1"/>
    </vehicle>
    <vehicle id="veh81" type="veh_passenger" depart="486.00">
        <route edges="-E4 -E1"/>
    </vehicle>
    <vehicle id="veh82" type="veh_passenger" depart="492.00">
        <route edges="-E4 -E5"/>
    </vehicle>
    <vehicle id="veh83" type="veh_passenger" depart="498.00">
        <route edges="E5 E4"/>
    </vehicle>
    <vehicle id="veh84" type="veh_passenger" depart="504.00">
        <route edges="E1 E3"/>
    </vehicle>
    <vehicle id="veh85" type="veh_passenger" depart="510.00">
        <route edges="-E3 -E5"/>
    </vehicle>
    <vehicle id="veh86" type="veh_passenger" depart="516.00">
        <route edges="E5 E3"/>
    </vehicle>
    <vehicle id="veh87" type="veh_passenger" depart="522.00">
        <route edges="E1 E3"/>
    </vehicle>
    <vehicle id="veh88" type="veh_passenger" depart="528.00">
        <route edges="E1 E4"/>
    </vehicle>
    <vehicle id="veh89" type="veh_passenger" depart="534.00">
        <route edges="-E3 E4"/>
    </vehicle>
    <vehicle id="veh90" type="veh_passenger" depart="540.00">
        <route edges="-E3 -E1"/>
    </vehicle>
    <vehicle id="veh91" type="veh_passenger" depart="546.00">
        <route edges="E1 E3"/>
    </vehicle>
    <vehicle id="veh92" type="veh_passenger" depart="552.00">
        <route edges="-E3 -E1"/>
    </vehicle>
    <vehicle id="veh93" type="veh_passenger" depart="558.00">
        <route edges="E5 -E1"/>
    </vehicle>
    <vehicle id="veh94" type="veh_passenger" depart="564.00">
        <route edges="E1 E3"/>
    </vehicle>
    <vehicle id="veh95" type="veh_passenger" depart="570.00">
        <route edges="-E4 E3"/>
    </vehicle>
    <vehicle id="veh96" type="veh_passenger" depart="576.00">
        <route edges="E1 E4"/>
    </vehicle>
    <vehicle id="veh97" type="veh_passenger" depart="582.00">
        <route edges="-E3 -E5"/>
    </vehicle>
    <vehicle id="veh98" type="veh_passenger" depart="588.00">
        <route edges="E1 -E5"/>
    </vehicle>
    <vehicle id="veh99" type="veh_passenger" depart="594.00">
        <route edges="-E3 -E5"/>
    </vehicle>
    <vehicle id="veh100" type="veh_passenger" depart="600.00">
        <route edges="E5 E4"/>
    </vehicle>
    <vehicle id="veh101" type="veh_passenger" depart="606.00">
        <route edges="-E3 -E1"/>
    </vehicle>
    <vehicle id="veh102" type="veh_passenger" depart="612.00">
        <route edges="E5 E4"/>
    </vehicle>
    <vehicle id="veh103" type="veh_passenger" depart="618.00">
        <route edges="-E4 -E1"/>
    </vehicle>
    <vehicle id="veh104" type="veh_passenger" depart="624.00">
        <route edges="E5 E3"/>
    </vehicle>
    <vehicle id="veh105" type="veh_passenger" depart="630.00">
        <route edges="E1 E4"/>
    </vehicle>
    <vehicle id="veh106" type="veh_passenger" depart="636.00">
        <route edges="E1 E4"/>
    </vehicle>
    <vehicle id="veh107" type="veh_passenger" depart="642.00">
        <route edges="-E3 -E1"/>
    </vehicle>
    <vehicle id="veh108" type="veh_passenger" depart="648.00">
        <route edges="-E4 E3"/>
    </vehicle>
    <vehicle id="veh109" type="veh_passenger" depart="654.00">
        <route edges="E1 -E5"/>
    </vehicle>
    <vehicle id="veh110" type="veh_passenger" depart="660.00">
        <route edges="E5 -E1"/>
    </vehicle>
    <vehicle id="veh111" type="veh_passenger" depart="666.00">
        <route edges="-E4 -E5"/>
    </vehicle>
    <vehicle id="veh112" type="veh_passenger" depart="672.00">
        <route edges="-E3 E4"/>
    </vehicle>
    <vehicle id="veh113" type="veh_passenger" depart="678.00">
        <route edges="E1 -E5"/>
    </vehicle>
    <vehicle id="veh114" type="veh_passenger" depart="684.00">
        <route edges="E1 E3"/>
    </vehicle>
    <vehicle id="veh115" type="veh_passenger" depart="690.00">
        <route edges="-E4 -E1"/>
    </vehicle>
    <vehicle id="veh116" type="veh_passenger" depart="696.00">
        <route edges="-E3 E4"/>
    </vehicle>
    <vehicle id="veh117" type="veh_passenger" depart="702.00">
        <route edges="E5 E3"/>
    </vehicle>
    <vehicle id="veh118" type="veh_passenger" depart="708.00">
        <route edges="E5 E3"/>
    </vehicle>
    <vehicle id="veh119" type="veh_passenger" depart="714.00">
        <route edges="-E3 -E1"/>
    </vehicle>
    <vehicle id="veh120" type="veh_passenger" depart="720.00">
        <route edges="E5 E4"/>
    </vehicle>
    <vehicle id="veh121" type="veh_passenger" depart="726.00">
        <route edges="E5 -E1"/>
    </vehicle>
    <vehicle id="veh122" type="veh_passenger" depart="732.00">
        <route edges="-E3 -E1"/>
    </vehicle>
    <vehicle id="veh123" type="veh_passenger" depart="738.00">
        <route edges="E5 E4"/>
    </vehicle>
    <vehicle id="veh124" type="veh_passenger" depart="744.00">
        <route edges="-E4 E3"/>
    </vehicle>
    <vehicle id="veh125" type="veh_passenger" depart="750.00">
        <route edges="-E3 E4"/>
    </vehicle>
    <vehicle id="veh126" type="veh_passenger" depart="756.00">
        <route edges="E5 E4"/>
    </vehicle>
    <vehicle id="veh127" type="veh_passenger" depart="762.00">
        <route edges="E5 E4"/>
    </vehicle>
    <vehicle id="veh128" type="veh_passenger" depart="768.00">
        <route edges="E5 E4"/>
    </vehicle>
    <vehicle id="veh129" type="veh_passenger" depart="774.00">
        <route edges="E5 -E1"/>
    </vehicle>
    <vehicle id="veh130" type="veh_passenger" depart="780.00">
        <route edges="E5 E4"/>
    </vehicle>
    <vehicle id="veh131" type="veh_passenger" depart="786.00">
        <route edges="-E3 E4"/>
    </vehicle>
    <vehicle id="veh132" type="veh_passenger" depart="792.00">
        <route edges="-E4 -E5"/>
    </vehicle>
    <vehicle id="veh133" type="veh_passenger" depart="798.00">
        <route edges="E5 -E1"/>
    </vehicle>
    <vehicle id="veh134" type="veh_passenger" depart="804.00">
        <route edges="-E3 -E1"/>
    </vehicle>
    <vehicle id="veh135" type="veh_passenger" depart="810.00">
        <route edges="E1 -E5"/>
    </vehicle>
    <vehicle id="veh136" type="veh_passenger" depart="816.00">
        <route edges="E5 E3"/>
    </vehicle>
    <vehicle id="veh137" type="veh_passenger" depart="822.00">
        <route edges="E5 -E1"/>
    </vehicle>
    <vehicle id="veh138" type="veh_passenger" depart="828.00">
        <route edges="E5 -E1"/>
    </vehicle>
    <vehicle id="veh139" type="veh_passenger" depart="834.00">
        <route edges="-E3 -E5"/>
    </vehicle>
    <vehicle id="veh140" type="veh_passenger" depart="840.00">
        <route edges="E1 -E5"/>
    </vehicle>
    <vehicle id="veh141" type="veh_passenger" depart="846.00">
        <route edges="E1 E3"/>
    </vehicle>
    <vehicle id="veh142" type="veh_passenger" depart="852.00">
        <route edges="-E4 E3"/>
    </vehicle>
    <vehicle id="veh143" type="veh_passenger" depart="858.00">
        <route edges="-E4 E3"/>
    </vehicle>
    <vehicle id="veh144" type="veh_passenger" depart="864.00">
        <route edges="-E3 E4"/>
    </vehicle>
    <vehicle id="veh145" type="veh_passenger" depart="870.00">
        <route edges="E1 E3"/>
    </vehicle>
    <vehicle id="veh146" type="veh_passenger" depart="876.00">
        <route edges="E1 E3"/>
    </vehicle>
    <vehicle id="veh147" type="veh_passenger" depart="882.00">
        <route edges="-E4 -E1"/>
    </vehicle>
    <vehicle id="veh148" type="veh_passenger" depart="888.00">
        <route edges="E1 -E5"/>
    </vehicle>
    <vehicle id="veh149" type="veh_passenger" depart="894.00">
        <route edges="E1 -E5"/>
    </vehicle>
    <vehicle id="veh150" type="veh_passenger" depart="900.00">
        <route edges="-E4 -E5"/>
    </vehicle>
    <vehicle id="veh151" type="veh_passenger" depart="906.00">
        <route edges="-E4 -E5"/>
    </vehicle>
    <vehicle id="veh152" type="veh_passenger" depart="912.00">
        <route edges="-E3 -E5"/>
    </vehicle>
    <vehicle id="veh153" type="veh_passenger" depart="918.00">
        <route edges="E5 E3"/>
    </vehicle>
    <vehicle id="veh154" type="veh_passenger" depart="924.00">
        <route edges="E5 E3"/>
    </vehicle>
    <vehicle id="veh155" type="veh_passenger" depart="930.00">
        <route edges="-E4 E3"/>
    </vehicle>
    <vehicle id="veh156" type="veh_passenger" depart="936.00">
        <route edges="-E3 -E5"/>
    </vehicle>
    <vehicle id="veh157" type="veh_passenger" depart="942.00">
        <route edges="-E4 E3"/>
    </vehicle>
    <vehicle id="veh158" type="veh_passenger" depart="948.00">
        <route edges="E1 -E5"/>
    </vehicle>
    <vehicle id="veh159" type="veh_passenger" depart="954.00">
        <route edges="-E4 -E1"/>
    </vehicle>
    <vehicle id="veh160" type="veh_passenger" depart="960.00">
        <route edges="E5 -E1"/>
    </vehicle>
    <vehicle id="veh161" type="veh_passenger" depart="966.00">
        <route edges="E1 -E5"/>
    </vehicle>
    <vehicle id="veh162" type="veh_passenger" depart="972.00">
        <route edges="E5 E4"/>
    </vehicle>
    <vehicle id="veh163" type="veh_passenger" depart="978.00">
        <route edges="-E3 -E1"/>
    </vehicle>
    <vehicle id="veh164" type="veh_passenger" depart="984.00">
        <route edges="-E3 -E5"/>
    </vehicle>
    <vehicle id="veh165" type="veh_passenger" depart="990.00">
        <route edges="E5 -E1"/>
    </vehicle>
    <vehicle id="veh166" type="veh_passenger" depart="996.00">
        <route edges="-E4 E3"/>
    </vehicle>
    <vehicle id="veh167" type="veh_passenger" depart="1002.00">
        <route edges="-E4 -E1"/>
    </vehicle>
    <vehicle id="veh168" type="veh_passenger" depart="1008.00">
        <route edges="E5 E4"/>
    </vehicle>
    <vehicle id="veh169" type="veh_passenger" depart="1014.00">
        <route edges="-E3 -E5"/>
    </vehicle>
    <vehicle id="veh170" type="veh_passenger" depart="1020.00">
        <route edges="-E3 E4"/>
    </vehicle>
    <vehicle id="veh171" type="veh_passenger" depart="1026.00">
        <route edges="-E3 E4"/>
    </vehicle>
    <vehicle id="veh172" type="veh_passenger" depart="1032.00">
        <route edges="E1 E4"/>
    </vehicle>
    <vehicle id="veh173" type="veh_passenger" depart="1038.00">
        <route edges="E1 E4"/>
    </vehicle>
    <vehicle id="veh174" type="veh_passenger" depart="1044.00">
        <route edges="E5 E3"/>
    </vehicle>
    <vehicle id="veh175" type="veh_passenger" depart="1050.00">
        <route edges="E1 E3"/>
    </vehicle>
    <vehicle id="veh176" type="veh_passenger" depart="1056.00">
        <route edges="E5 E3"/>
    </vehicle>
    <vehicle id="veh177" type="veh_passenger" depart="1062.00">
        <route edges="E5 E3"/>
    </vehicle>
    <vehicle id="veh178" type="veh_passenger" depart="1068.00">
        <route edges="-E4 -E5"/>
    </vehicle>
    <vehicle id="veh179" type="veh_passenger" depart="1074.00">
        <route edges="E5 E3"/>
    </vehicle>
    <vehicle id="veh180" type="veh_passenger" depart="1080.00">
        <route edges="E1 -E5"/>
    </vehicle>
    <vehicle id="veh181" type="veh_passenger" depart="1086.00">
        <route edges="-E3 -E5"/>
    </vehicle>
    <vehicle id="veh182" type="veh_passenger" depart="1092.00">
        <route edges="-E4 -E5"/>
    </vehicle>
    <vehicle id="veh183" type="veh_passenger" depart="1098.00">
        <route edges="-E4 E3"/>
    </vehicle>
    <vehicle id="veh184" type="veh_passenger" depart="1104.00">
        <route edges="-E4 -E1"/>
    </vehicle>
    <vehicle id="veh185" type="veh_passenger" depart="1110.00">
        <route edges="E1 E3"/>
    </vehicle>
    <vehicle id="veh186" type="veh_passenger" depart="1116.00">
        <route edges="E5 E4"/>
    </vehicle>
    <vehicle id="veh187" type="veh_passenger" depart="1122.00">
        <route edges="-E4 -E1"/>
    </vehicle>
    <vehicle id="veh188" type="veh_passenger" depart="1128.00">
        <route edges="E5 E4"/>
    </vehicle>
    <vehicle id="veh189" type="veh_passenger" depart="1134.00">
        <route edges="-E4 E3"/>
    </vehicle>
    <vehicle id="veh190" type="veh_passenger" depart="1140.00">
        <route edges="E1 E3"/>
    </vehicle>
    <vehicle id="veh191" type="veh_passenger" depart="1146.00">
        <route edges="-E3 -E1"/>
    </vehicle>
    <vehicle id="veh192" type="veh_passenger" depart="1152.00">
        <route edges="-E4 -E1"/>
    </vehicle>
    <vehicle id="veh193" type="veh_passenger" depart="1158.00">
        <route edges="-E4 E3"/>
    </vehicle>
    <vehicle id="veh194" type="veh_passenger" depart="1164.00">
        <route edges="-E4 -E1"/>
    </vehicle>
    <vehicle id="veh195" type="veh_passenger" depart="1170.00">
        <route edges="-E4 -E1"/>
    </vehicle>
    <vehicle id="veh196" type="veh_passenger" depart="1176.00">
        <route edges="-E4 E3"/>
    </vehicle>
    <vehicle id="veh197" type="veh_passenger" depart="1182.00">
        <route edges="-E3 -E5"/>
    </vehicle>
    <vehicle id="veh198" type="veh_passenger" depart="1188.00">
        <route edges="-E3 -E5"/>
    </vehicle>
    <vehicle id="veh199" type="veh_passenger" depart="1194.00">
        <route edges="-E3 -E5"/>
    </vehicle>
    <vehicle id="veh200" type="veh_passenger" depart="1200.00">
        <route edges="E5 E4"/>
    </vehicle>
    <vehicle id="veh201" type="veh_passenger" depart="1206.00">
        <route edges="-E4 -E1"/>
    </vehicle>
    <vehicle id="veh202" type="veh_passenger" depart="1212.00">
        <route edges="E1 E4"/>
    </vehicle>
    <vehicle id="veh203" type="veh_passenger" depart="1218.00">
        <route edges="E1 E4"/>
    </vehicle>
    <vehicle id="veh204" type="veh_passenger" depart="1224.00">
        <route edges="E5 -E1"/>
    </vehicle>
    <vehicle id="veh205" type="veh_passenger" depart="1230.00">
        <route edges="-E3 -E1"/>
    </vehicle>
    <vehicle id="veh206" type="veh_passenger" depart="1236.00">
        <route edges="E1 E4"/>
    </vehicle>
    <vehicle id="veh207" type="veh_passenger" depart="1242.00">
        <route edges="E5 E4"/>
    </vehicle>
    <vehicle id="veh208" type="veh_passenger" depart="1248.00">
        <route edges="-E3 -E1"/>
    </vehicle>
    <vehicle id="veh209" type="veh_passenger" depart="1254.00">
        <route edges="-E4 E3"/>
    </vehicle>
    <vehicle id="veh210" type="veh_passenger" depart="1260.00">
        <route edges="E1 E3"/>
    </vehicle>
    <vehicle id="veh211" type="veh_passenger" depart="1266.00">
        <route edges="-E3 E4"/>
    </vehicle>
    <vehicle id="veh212" type="veh_passenger" depart="1272.00">
        <route edges="E5 E3"/>
    </vehicle>
    <vehicle id="veh213" type="veh_passenger" depart="1278.00">
        <route edges="-E3 E4"/>
    </vehicle>
    <vehicle id="veh214" type="veh_passenger" depart="1284.00">
        <route edges="-E4 -E5"/>
    </vehicle>
    <vehicle id="veh215" type="veh_passenger" depart="1290.00">
        <route edges="E1 -E5"/>
    </vehicle>
    <vehicle id="veh216" type="veh_passenger" depart="1296.00">
        <route edges="E5 E4"/>
    </vehicle>
    <vehicle id="veh217" type="veh_passenger" depart="1302.00">
        <route edges="-E3 E4"/>
    </vehicle>
    <vehicle id="veh218" type="veh_passenger" depart="1308.00">
        <route edges="E1 E4"/>
    </vehicle>
    <vehicle id="veh219" type="veh_passenger" depart="1314.00">
        <route edges="E1 -E5"/>
    </vehicle>
    <vehicle id="veh220" type="veh_passenger" depart="1320.00">
        <route edges="E1 E4"/>
    </vehicle>
    <vehicle id="veh221" type="veh_passenger" depart="1326.00">
        <route edges="E1 -E5"/>
    </vehicle>
    <vehicle id="veh222" type="veh_passenger" depart="1332.00">
        <route edges="-E4 E3"/>
    </vehicle>
    <vehicle id="veh223" type="veh_passenger" depart="1338.00">
        <route edges="E5 -E1"/>
    </vehicle>
    <vehicle id="veh224" type="veh_passenger" depart="1344.00">
        <route edges="E5 -E1"/>
    </vehicle>
    <vehicle id="veh225" type="veh_passenger" depart="1350.00">
        <route edges="-E4 E3"/>
    </vehicle>
    <vehicle id="veh226" type="veh_passenger" depart="1356.00">
        <route edges="-E4 -E1"/>
    </vehicle>
    <vehicle id="veh227" type="veh_passenger" depart="1362.00">
        <route edges="E5 -E1"/>
    </vehicle>
    <vehicle id="veh228" type="veh_passenger" depart="1368.00">
        <route edges="-E3 E4"/>
    </vehicle>
    <vehicle id="veh229" type="veh_passenger" depart="1374.00">
        <route edges="E1 -E5"/>
    </vehicle>
    <vehicle id="veh230" type="veh_passenger" depart="1380.00">
        <route edges="-E3 E4"/>
    </vehicle>
    <vehicle id="veh231" type="veh_passenger" depart="1386.00">
        <route edges="E1 E3"/>
    </vehicle>
    <vehicle id="veh232" type="veh_passenger" depart="1392.00">
        <route edges="-E3 -E1"/>
    </vehicle>
    <vehicle id="veh233" type="veh_passenger" depart="1398.00">
        <route edges="E1 -E5"/>
    </vehicle>
    <vehicle id="veh234" type="veh_passenger" depart="1404.00">
        <route edges="E1 -E5"/>
    </vehicle>
    <vehicle id="veh235" type="veh_passenger" depart="1410.00">
        <route edges="E1 -E5"/>
    </vehicle>
    <vehicle id="veh236" type="veh_passenger" depart="1416.00">
        <route edges="E1 -E5"/>
    </vehicle>
    <vehicle id="veh237" type="veh_passenger" depart="1422.00">
        <route edges="E1 -E5"/>
    </vehicle>
    <vehicle id="veh238" type="veh_passenger" depart="1428.00">
        <route edges="-E4 -E1"/>
    </vehicle>
    <vehicle id="veh239" type="veh_passenger" depart="1434.00">
        <route edges="-E3 -E1"/>
    </vehicle>
    <vehicle id="veh240" type="veh_passenger" depart="1440.00">
        <route edges="E1 E4"/>
    </vehicle>
    <vehicle id="veh241" type="veh_passenger" depart="1446.00">
        <route edges="-E3 -E1"/>
    </vehicle>
    <vehicle id="veh242" type="veh_passenger" depart="1452.00">
        <route edges="-E4 E3"/>
    </vehicle>
    <vehicle id="veh243" type="veh_passenger" depart="1458.00">
        <route edges="E5 E3"/>
    </vehicle>
    <vehicle id="veh244" type="veh_passenger" depart="1464.00">
        <route edges="-E4 -E1"/>
    </vehicle>
    <vehicle id="veh245" type="veh_passenger" depart="1470.00">
        <route edges="-E3 -E1"/>
    </vehicle>
    <vehicle id="veh246" type="veh_passenger" depart="1476.00">
        <route edges="-E3 -E1"/>
    </vehicle>
    <vehicle id="veh247" type="veh_passenger" depart="1482.00">
        <route edges="E1 -E5"/>
    </vehicle>
    <vehicle id="veh248" type="veh_passenger" depart="1488.00">
        <route edges="E5 E3"/>
    </vehicle>
    <vehicle id="veh249" type="veh_passenger" depart="1494.00">
        <route edges="E5 E3"/>
    </vehicle>
    <vehicle id="veh250" type="veh_passenger" depart="1500.00">
        <route edges="-E4 -E5"/>
    </vehicle>
    <vehicle id="veh251" type="veh_passenger" depart="1506.00">
        <route edges="-E3 -E1"/>
    </vehicle>
    <vehicle id="veh252" type="veh_passenger" depart="1512.00">
        <route edges="-E3 -E1"/>