<?xml version="1.0" encoding="UTF-8"?>

<!-- generated on 2024-05-28 18:53:49 by Eclipse SUMO netedit Version 1.14.1
-->

<routes xmlns:xsi="http://www.w3.org/2001/XMLSchema-instance" xsi:noNamespaceSchemaLocation="http://sumo.dlr.de/xsd/routes_file.xsd">
    <!-- VTypes -->
    <vType id="t_0"/>
    <!-- Routes -->
    <route id="r_0" edges="-E3 -E1"/>
    <route id="r_1" edges="-E3 E4"/>
    <route id="r_10" edges="E1 -E5"/>
    <route id="r_11" edges="E1 E4"/>
    <route id="r_2" edges="-E3 -E5"/>
    <route id="r_3" edges="E5 E3"/>
    <route id="r_4" edges="E5 -E1"/>
    <route id="r_5" edges="E5 E4"/>
    <route id="r_6" edges="-E4 -E5"/>
    <route id="r_7" edges="-E4 E3"/>
    <route id="r_8" edges="-E4 -E1"/>
    <route id="r_9" edges="E1 E3"/>
    <!-- Vehicles, persons and containers (sorted by depart) -->
    <trip id="t_0" type="DEFAULT_TAXITYPE" depart="0.00" from="-E3" to="-E1"/>
    <trip id="t_1" type="DEFAULT_TAXITYPE" depart="0.00" from="-E3" to="E4"/>
    <trip id="t_10" type="DEFAULT_TAXITYPE" depart="0.00" from="E1" to="-E5"/>
    <trip id="t_11" type="DEFAULT_TAXITYPE" depart="0.00" from="E1" to="E3"/>
    <trip id="t_2" type="DEFAULT_TAXITYPE" depart="0.00" from="-E3" to="-E5"/>
    <trip id="t_3" type="DEFAULT_TAXITYPE" depart="0.00" from="E5" to="E3"/>
    <trip id="t_4" type="DEFAULT_TAXITYPE" depart="0.00" from="E5" to="-E1"/>
    <trip id="t_5" type="DEFAULT_TAXITYPE" depart="0.00" from="E5" to="E4"/>
    <trip id="t_6" type="DEFAULT_TAXITYPE" depart="0.00" from="-E4" to="-E5"/>
    <trip id="t_7" type="DEFAULT_TAXITYPE" depart="0.00" from="-E4" to="E3"/>
    <trip id="t_8" type="DEFAULT_TAXITYPE" depart="0.00" from="-E4" to="-E1"/>
    <trip id="t_9" type="DEFAULT_TAXITYPE" depart="0.00" from="E1" to="E4"/>
</routes>
