<?xml version="1.0" encoding="UTF-8"?>

<!-- generated on 2024-05-30 20:32:42.777199 by randomTrips.py v1_20_0+0002-343658e7c64
<configuration>
    <net-file value="osm.net.xml"/>
    <output-trip-file value="osm.passenger.trips.xml"/>
    <route-file value="osm.passenger.rou.xml"/>
    <lanes value="True"/>
    <seed value="975"/>
    <validate value="True"/>
    <end value="1000.0"/>
    <period value="0.7"/>
    <binomial value="4"/>
</configuration>
-->

<!-- generated on 2024-05-30 20:32:42 by Eclipse SUMO duarouter Version 1.20.0
<configuration xmlns:xsi="http://www.w3.org/2001/XMLSchema-instance" xsi:noNamespaceSchemaLocation="http://sumo.dlr.de/xsd/duarouterConfiguration.xsd">

    <input>
        <net-file value="osm.net.xml"/>
        <route-files value="osm.passenger.trips.xml"/>
    </input>

    <output>
        <output-file value="osm.passenger.trips.xml.tmp"/>
        <alternatives-output value="NUL"/>
        <write-trips value="true"/>
    </output>

    <time>
        <begin value="0"/>
        <end value="1000.0"/>
    </time>

    <report>
        <no-warnings value="true"/>
        <ignore-errors value="true"/>
        <no-step-log value="true"/>
    </report>

</configuration>
-->

<routes xmlns:xsi="http://www.w3.org/2001/XMLSchema-instance" xsi:noNamespaceSchemaLocation="http://sumo.dlr.de/xsd/routes_file.xsd">
    <trip id="1" depart="2.00" from="E5" to="E4"/>
    <trip id="2" depart="2.00" from="E1" to="E4"/>
    <trip id="4" depart="4.00" from="E5" to="E4"/>
    <trip id="6" depart="5.00" from="-E4" to="E3"/>
    <trip id="7" depart="5.00" from="E5" to="E4"/>
    <trip id="8" depart="6.00" from="-E4" to="-E1"/>
    <trip id="13" depart="10.00" from="-E4" to="-E5"/>
    <trip id="15" depart="12.00" from="E5" to="E4"/>
    <trip id="16" depart="13.00" from="-E4" to="E3"/>
    <trip id="17" depart="14.00" from="E5" to="E4"/>
    <trip id="18" depart="15.00" from="E5" to="E3"/>
    <trip id="19" depart="16.00" from="-E3" to="-E1"/>
    <trip id="20" depart="16.00" from="E1" to="E4"/>
    <trip id="21" depart="17.00" from="-E3" to="E4"/>
    <trip id="24" depart="20.00" from="E5" to="-E1"/>
    <trip id="25" depart="20.00" from="-E3" to="-E5"/>
    <trip id="26" depart="21.00" from="-E4" to="E3"/>
    <trip id="28" depart="22.00" from="-E4" to="-E1"/>
    <trip id="29" depart="22.00" from="E5" to="-E1"/>
    <trip id="31" depart="23.00" from="E1" to="-E5"/>
    <trip id="33" depart="24.00" from="-E3" to="E4"/>
    <trip id="34" depart="25.00" from="-E3" to="-E1"/>
    <trip id="36" depart="27.00" from="E1" to="E4"/>
    <trip id="38" depart="29.00" from="-E4" to="E3"/>
    <trip id="39" depart="29.00" from="E1" to="-E5"/>
    <trip id="40" depart="29.00" from="E5" to="E4"/>
    <trip id="41" depart="30.00" from="-E4" to="E3"/>
    <trip id="43" depart="30.00" from="E1" to="E3"/>
    <trip id="45" depart="32.00" from="E5" to="E4"/>
    <trip id="46" depart="33.00" from="E5" to="-E1"/>
    <trip id="47" depart="33.00" from="E5" to="E4"/>
    <trip id="49" depart="34.00" from="-E3" to="E4"/>
    <trip id="50" depart="35.00" from="E5" to="-E1"/>
    <trip id="52" depart="36.00" from="-E3" to="-E1"/>
    <trip id="53" depart="37.00" from="E1" to="E3"/>
    <trip id="54" depart="37.00" from="-E3" to="-E1"/>
    <trip id="56" depart="40.00" from="-E4" to="E3"/>
    <trip id="57" depart="41.00" from="E5" to="E3"/>
    <trip id="60" depart="42.00" from="-E4" to="-E5"/>
    <trip id="62" depart="42.00" from="-E4" to="-E1"/>
    <trip id="63" depart="43.00" from="-E3" to="-E1"/>
    <trip id="64" depart="44.00" from="-E3" to="-E5"/>
    <trip id="67" depart="45.00" from="E1" to="-E5"/>
    <trip id="68" depart="47.00" from="-E4" to="E3"/>
    <trip id="69" depart="48.00" from="-E3" to="E4"/>
    <trip id="70" depart="48.00" from="E1" to="E4"/>
    <trip id="71" depart="48.00" from="-E3" to="-E1"/>
    <trip id="72" depart="49.00" from="-E3" to="-E1"/>
    <trip id="73" depart="50.00" from="-E4" to="-E1"/>
    <trip id="74" depart="52.00" from="-E4" to="-E1"/>
    <trip id="76" depart="52.00" from="-E3" to="E4"/>
    <trip id="77" depart="53.00" from="-E3" to="-E5"/>
    <trip id="78" depart="54.00" from="-E4" to="E3"/>
    <trip id="80" depart="55.00" from="E5" to="-E1"/>
    <trip id="81" depart="55.00" from="E5" to="E4"/>
    <trip id="82" depart="56.00" from="E1" to="-E5"/>
    <trip id="86" depart="58.00" from="-E3" to="-E5"/>
    <trip id="87" depart="59.00" from="E1" to="E4"/>
    <trip id="88" depart="59.00" from="E5" to="-E1"/>
    <trip id="89" depart="60.00" from="-E4" to="-E1"/>
    <trip id="90" depart="60.00" from="-E4" to="-E5"/>
    <trip id="91" depart="62.00" from="E1" to="E3"/>
    <trip id="93" depart="64.00" from="-E4" to="-E1"/>
    <trip id="94" depart="65.00" from="E1" to="E4"/>
    <trip id="95" depart="65.00" from="E5" to="E3"/>
    <trip id="96" depart="66.00" from="-E3" to="E4"/>
    <trip id="97" depart="67.00" from="-E4" to="-E5"/>
    <trip id="101" depart="69.00" from="E1" to="E3"/>
    <trip id="104" depart="73.00" from="E1" to="-E5"/>
    <trip id="105" depart="74.00" from="E1" to="E3"/>
    <trip id="107" depart="75.00" from="-E4" to="-E5"/>
    <trip id="108" depart="75.00" from="E1" to="-E5"/>
    <trip id="109" depart="76.00" from="E5" to="E4"/>
    <trip id="110" depart="77.00" from="E1" to="-E5"/>
    <trip id="111" depart="77.00" from="-E4" to="E3"/>
    <trip id="112" depart="78.00" from="-E3" to="-E1"/>
    <trip id="113" depart="78.00" from="-E4" to="E3"/>
    <trip id="114" depart="79.00" from="E1" to="-E5"/>
    <trip id="116" depart="80.00" from="E5" to="E3"/>
    <trip id="117" depart="81.00" from="-E3" to="E4"/>
    <trip id="118" depart="82.00" from="E1" to="E3"/>
    <trip id="120" depart="82.00" from="-E4" to="-E1"/>
    <trip id="121" depart="82.00" from="E5" to="E3"/>
    <trip id="123" depart="83.00" from="E5" to="E4"/>
    <trip id="124" depart="84.00" from="-E4" to="-E1"/>
    <trip id="125" depart="84.00" from="E5" to="E4"/>
    <trip id="126" depart="85.00" from="-E3" to="E4"/>
    <trip id="127" depart="87.00" from="-E3" to="-E1"/>
    <trip id="128" depart="88.00" from="-E4" to="-E5"/>
    <trip id="129" depart="88.00" from="-E4" to="-E1"/>
    <trip id="131" depart="89.00" from="E1" to="E4"/>
    <trip id="132" depart="89.00" from="-E4" to="-E1"/>
    <trip id="133" depart="91.00" from="-E4" to="E3"/>
    <trip id="134" depart="91.00" from="E5" to="E3"/>
    <trip id="136" depart="92.00" from="E1" to="E4"/>
    <trip id="137" depart="93.00" from="-E3" to="-E1"/>
    <trip id="139" depart="95.00" from="-E4" to="E3"/>
    <trip id="140" depart="96.00" from="E5" to="E3"/>
    <trip id="142" depart="99.00" from="E1" to="E4"/>
    <trip id="145" depart="101.00" from="E1" to="-E5"/>
    <trip id="146" depart="101.00" from="-E4" to="-E1"/>
    <trip id="147" depart="102.00" from="-E4" to="E3"/>
    <trip id="150" depart="103.00" from="-E3" to="-E5"/>
    <trip id="151" depart="103.00" from="E1" to="E3"/>
    <trip id="152" depart="104.00" from="E5" to="E4"/>
    <trip id="154" depart="104.00" from="-E4" to="E3"/>
    <trip id="156" depart="105.00" from="-E3" to="-E5"/>
    <trip id="157" depart="106.00" from="-E4" to="-E5"/>
    <trip id="158" depart="106.00" from="-E3" to="-E1"/>
    <trip id="159" depart="106.00" from="E5" to="-E1"/>
    <trip id="161" depart="107.00" from="-E3" to="-E5"/>
    <trip id="163" depart="109.00" from="-E4" to="E3"/>
    <trip id="164" depart="110.00" from="E1" to="-E5"/>
    <trip id="165" depart="110.00" from="E1" to="-E5"/>
    <trip id="166" depart="111.00" from="-E4" to="-E1"/>
    <trip id="167" depart="111.00" from="E1" to="-E5"/>
    <trip id="168" depart="112.00" from="-E3" to="-E1"/>
    <trip id="169" depart="112.00" from="E1" to="E3"/>
    <trip id="170" depart="113.00" from="-E4" to="-E5"/>
    <trip id="171" depart="113.00" from="E5" to="-E1"/>
    <trip id="172" depart="114.00" from="-E3" to="-E1"/>
    <trip id="173" depart="118.00" from="-E4" to="E3"/>
    <trip id="174" depart="119.00" from="E1" to="E4"/>
    <trip id="176" depart="120.00" from="E1" to="E4"/>
    <trip id="178" depart="121.00" from="E5" to="-E1"/>
    <trip id="179" depart="123.00" from="E1" to="E3"/>
    <trip id="180" depart="124.00" from="-E3" to="E4"/>
    <trip id="181" depart="125.00" from="-E4" to="E3"/>
    <trip id="182" depart="126.00" from="-E3" to="-E1"/>
    <trip id="185" depart="129.00" from="-E4" to="-E5"/>
    <trip id="186" depart="129.00" from="E1" to="E3"/>
    <trip id="187" depart="130.00" from="E5" to="E3"/>
    <trip id="189" depart="131.00" from="E1" to="E3"/>
    <trip id="191" depart="132.00" from="E1" to="-E5"/>
    <trip id="192" depart="132.00" from="E5" to="E3"/>
    <trip id="193" depart="133.00" from="-E4" to="-E5"/>
    <trip id="194" depart="134.00" from="E5" to="E4"/>
    <trip id="195" depart="135.00" from="-E4" to="-E1"/>
    <trip id="197" depart="136.00" from="-E3" to="E4"/>
    <trip id="199" depart="136.00" from="E1" to="E3"/>
    <trip id="200" depart="137.00" from="-E3" to="-E5"/>
    <trip id="201" depart="138.00" from="E5" to="E3"/>
    <trip id="202" depart="138.00" from="-E4" to="-E1"/>
    <trip id="203" depart="139.00" from="-E3" to="-E1"/>
    <trip id="204" depart="139.00" from="-E3" to="-E5"/>
    <trip id="205" depart="139.00" from="E5" to="E3"/>
    <trip id="207" depart="142.00" from="E1" to="-E5"/>
    <trip id="210" depart="143.00" from="E1" to="-E5"/>
    <trip id="211" depart="144.00" from="E5" to="-E1"/>
    <trip id="213" depart="145.00" from="E5" to="E4"/>
    <trip id="216" depart="145.00" from="-E3" to="E4"/>
    <trip id="217" depart="146.00" from="E5" to="E4"/>
    <trip id="218" depart="146.00" from="-E4" to="E3"/>
    <trip id="219" depart="146.00" from="E5" to="-E1"/>
    <trip id="220" depart="146.00" from="E5" to="E4"/>
    <trip id="221" depart="147.00" from="-E4" to="-E1"/>
    <trip id="222" depart="147.00" from="-E3" to="-E5"/>
    <trip id="223" depart="148.00" from="E5" to="E4"/>
    <trip id="224" depart="148.00" from="E5" to="-E1"/>
    <trip id="225" depart="149.00" from="E5" to="E4"/>
    <trip id="227" depart="150.00" from="-E4" to="-E5"/>
    <trip id="228" depart="151.00" from="E1" to="-E5"/>
    <trip id="232" depart="154.00" from="-E4" to="-E5"/>
    <trip id="233" depart="154.00" from="E5" to="-E1"/>
    <trip id="234" depart="155.00" from="E1" to="E3"/>
    <trip id="235" depart="155.00" from="-E3" to="-E1"/>
    <trip id="236" depart="156.00" from="E5" to="E4"/>
    <trip id="237" depart="156.00" from="-E4" to="E3"/>
    <trip id="238" depart="158.00" from="E5" to="E4"/>
    <trip id="240" depart="159.00" from="E1" to="-E5"/>
    <trip id="241" depart="160.00" from="E1" to="E4"/>
    <trip id="242" depart="160.00" from="-E4" to="E3"/>
    <trip id="243" depart="162.00" from="-E3" to="E4"/>
    <trip id="244" depart="162.00" from="-E3" to="E4"/>
    <trip id="245" depart="163.00" from="-E4" to="-E1"/>
    <trip id="248" depart="164.00" from="E5" to="E4"/>
    <trip id="249" depart="165.00" from="E5" to="-E1"/>
    <trip id="250" depart="167.00" from="E5" to="-E1"/>
    <trip id="251" depart="167.00" from="E1" to="E4"/>
    <trip id="252" depart="168.00" from="E1" to="E3"/>
    <trip id="253" depart="169.00" from="E5" to="E4"/>
    <trip id="254" depart="170.00" from="E1" to="E4"/>
    <trip id="255" depart="171.00" from="-E3" to="-E1"/>
    <trip id="256" depart="172.00" from="-E3" to="-E1"/>
    <trip id="257" depart="172.00" from="E5" to="-E1"/>
    <trip id="258" depart="172.00" from="E5" to="E4"/>
    <trip id="260" depart="175.00" from="-E3" to="E4"/>
    <trip id="261" depart="177.00" from="E5" to="E3"/>
    <trip id="262" depart="177.00" from="E1" to="-E5"/>
    <trip id="264" depart="178.00" from="E1" to="-E5"/>
    <trip id="267" depart="181.00" from="E5" to="-E1"/>
    <trip id="268" depart="182.00" from="E5" to="E4"/>
    <trip id="269" depart="184.00" from="-E3" to="E4"/>
    <trip id="270" depart="184.00" from="-E4" to="E3"/>
    <trip id="274" depart="187.00" from="E5" to="E3"/>
    <trip id="275" depart="188.00" from="-E3" to="-E5"/>
    <trip id="277" depart="188.00" from="-E3" to="-E5"/>
    <trip id="278" depart="189.00" from="E5" to="-E1"/>
    <trip id="279" depart="189.00" from="-E3" to="E4"/>
    <trip id="280" depart="190.00" from="E1" to="E4"/>
    <trip id="281" depart="190.00" from="E1" to="-E5"/>
    <trip id="287" depart="196.00" from="E1" to="E4"/>
    <trip id="288" depart="198.00" from="E5" to="E4"/>
    <trip id="289" depart="198.00" from="-E3" to="-E1"/>
    <trip id="290" depart="198.00" from="E5" to="E3"/>
    <trip id="291" depart="198.00" from="-E4" to="-E5"/>
    <trip id="292" depart="200.00" from="E1" to="E3"/>
    <trip id="293" depart="200.00" from="-E3" to="-E5"/>
    <trip id="294" depart="201.00" from="E5" to="E4"/>
    <trip id="297" depart="202.00" from="E5" to="E4"/>
    <trip id="298" depart="202.00" from="E5" to="E4"/>
    <trip id="299" depart="203.00" from="-E3" to="-E1"/>
    <trip id="300" depart="204.00" from="-E4" to="E3"/>
    <trip id="301" depart="204.00" from="E5" to="-E1"/>
    <trip id="302" depart="204.00" from="-E4" to="E3"/>
    <trip id="303" depart="205.00" from="E1" to="E3"/>
    <trip id="304" depart="207.00" from="-E3" to="-E5"/>
    <trip id="305" depart="208.00" from="-E3" to="-E1"/>
    <trip id="306" depart="208.00" from="E1" to="E4"/>
    <trip id="309" depart="211.00" from="-E3" to="E4"/>
    <trip id="310" depart="212.00" from="E5" to="-E1"/>
    <trip id="311" depart="213.00" from="E1" to="E4"/>
    <trip id="314" depart="214.00" from="-E4" to="-E1"/>
    <trip id="315" depart="216.00" from="-E4" to="E3"/>
    <trip id="316" depart="217.00" from="E1" to="E4"/>
    <trip id="317" depart="218.00" from="-E3" to="E4"/>
    <trip id="318" depart="219.00" from="-E4" to="E3"/>
    <trip id="319" depart="220.00" from="-E4" to="-E5"/>
    <trip id="320" depart="221.00" from="-E3" to="E4"/>
    <trip id="321" depart="221.00" from="E5" to="E4"/>
    <trip id="323" depart="221.00" from="E5" to="-E1"/>
    <trip id="324" depart="222.00" from="E1" to="E3"/>
    <trip id="325" depart="223.00" from="E5" to="E3"/>
    <trip id="326" depart="223.00" from="E5" to="E3"/>
    <trip id="327" depart="224.00" from="-E3" to="E4"/>
    <trip id="328" depart="224.00" from="-E4" to="E3"/>
    <trip id="330" depart="225.00" from="E5" to="E3"/>
    <trip id="331" depart="226.00" from="-E4" to="-E5"/>
    <trip id="333" depart="226.00" from="-E3" to="E4"/>
    <trip id="334" depart="227.00" from="E1" to="-E5"/>
    <trip id="335" depart="227.00" from="-E4" to="-E5"/>
    <trip id="336" depart="227.00" from="-E3" to="-E1"/>
    <trip id="337" depart="228.00" from="-E4" to="E3"/>
    <trip id="338" depart="228.00" from="E1" to="-E5"/>
    <trip id="339" depart="229.00" from="E5" to="E4"/>
    <trip id="340" depart="229.00" from="-E3" to="E4"/>
    <trip id="344" depart="231.00" from="-E4" to="-E1"/>
    <trip id="345" depart="231.00" from="-E4" to="-E5"/>
    <trip id="347" depart="233.00" from="E1" to="E4"/>
    <trip id="348" depart="234.00" from="-E3" to="E4"/>
    <trip id="350" depart="235.00" from="-E3" to="-E5"/>
    <trip id="351" depart="236.00" from="-E4" to="-E1"/>
    <trip id="352" depart="236.00" from="E1" to="E3"/>
    <trip id="353" depart="237.00" from="-E3" to="-E1"/>
    <trip id="354" depart="241.00" from="E5" to="-E1"/>
    <trip id="355" depart="242.00" from="-E4" to="-E5"/>
    <trip id="356" depart="242.00" from="-E3" to="E4"/>
    <trip id="358" depart="245.00" from="-E4" to="E3"/>
    <trip id="359" depart="245.00" from="-E4" to="E3"/>
    <trip id="360" depart="246.00" from="-E4" to="E3"/>
    <trip id="361" depart="246.00" from="E5" to="E3"/>
    <trip id="362" depart="247.00" from="E5" to="-E1"/>
    <trip id="363" depart="248.00" from="-E4" to="-E1"/>
    <trip id="364" depart="248.00" from="E5" to="E4"/>
    <trip id="365" depart="250.00" from="-E3" to="-E5"/>
    <trip id="366" depart="250.00" from="E5" to="E4"/>
    <trip id="367" depart="251.00" from="-E3" to="-E5"/>
    <trip id="368" depart="251.00" from="E1" to="E4"/>
    <trip id="369" depart="251.00" from="-E4" to="E3"/>
    <trip id="371" depart="253.00" from="E1" to="E4"/>
    <trip id="372" depart="253.00" from="-E3" to="E4"/>
    <trip id="373" depart="254.00" from="-E4" to="-E5"/>
    <trip id="374" depart="256.00" from="E5" to="E3"/>
    <trip id="375" depart="259.00" from="E5" to="-E1"/>
    <trip id="378" depart="260.00" from="E1" to="E3"/>
    <trip id="382" depart="263.00" from="E1" to="-E5"/>
    <trip id="383" depart="264.00" from="-E3" to="-E1"/>
    <trip id="384" depart="265.00" from="E1" to="E3"/>
    <trip id="386" depart="266.00" from="-E3" to="-E1"/>
    <trip id="387" depart="267.00" from="E5" to="E3"/>
    <trip id="390" depart="268.00" from="E5" to="E3"/>
    <trip id="391" depart="268.00" from="E5" to="E4"/>
    <trip id="392" depart="269.00" from="-E4" to="-E5"/>
    <trip id="393" depart="269.00" from="-E3" to="-E5"/>
    <trip id="394" depart="270.00" from="E1" to="E3"/>
    <trip id="396" depart="271.00" from="-E3" to="-E5"/>
    <trip id="398" depart="273.00" from="E5" to="E3"/>
    <trip id="399" depart="274.00" from="E5" to="-E1"/>
    <trip id="400" depart="274.00" from="-E3" to="E4"/>
    <trip id="401" depart="277.00" from="E1" to="E3"/>
    <trip id="402" depart="277.00" from="-E3" to="-E5"/>
    <trip id="403" depart="278.00" from="-E4" to="-E5"/>
    <trip id="404" depart="278.00" from="E5" to="-E1"/>
    <trip id="406" depart="280.00" from="-E3" to="E4"/>
    <trip id="407" depart="280.00" from="-E4" to="-E5"/>
    <trip id="408" depart="281.00" from="-E3" to="-E1"/>
    <trip id="410" depart="284.00" from="E5" to="E4"/>
    <trip id="411" depart="284.00" from="-E4" to="-E1"/>
    <trip id="412" depart="285.00" from="E1" to="E3"/>
    <trip id="413" depart="286.00" from="-E3" to="-E1"/>
    <trip id="414" depart="286.00" from="-E4" to="E3"/>
    <trip id="415" depart="288.00" from="-E3" to="E4"/>
    <trip id="416" depart="288.00" from="-E3" to="-E5"/>
    <trip id="417" depart="288.00" from="-E4" to="E3"/>
    <trip id="418" depart="289.00" from="-E3" to="-E1"/>
    <trip id="419" depart="289.00" from="-E4" to="-E5"/>
    <trip id="420" depart="290.00" from="-E3" to="E4"/>
    <trip id="421" depart="290.00" from="-E3" to="-E5"/>
    <trip id="422" depart="291.00" from="-E4" to="E3"/>
    <trip id="423" depart="291.00" from="-E3" to="-E1"/>
    <trip id="427" depart="295.00" from="E5" to="E3"/>
    <trip id="428" depart="296.00" from="-E3" to="-E5"/>
    <trip id="429" depart="297.00" from="-E4" to="E3"/>
    <trip id="430" depart="297.00" from="E1" to="E3"/>
    <trip id="432" depart="299.00" from="-E4" to="-E1"/>
    <trip id="433" depart="301.00" from="-E4" to="-E5"/>
    <trip id="435" depart="302.00" from="-E4" to="E3"/>
    <trip id="436" depart="303.00" from="-E4" to="E3"/>
    <trip id="437" depart="304.00" from="-E4" to="-E1"/>
    <trip id="438" depart="304.00" from="E1" to="-E5"/>
    <trip id="439" depart="305.00" from="E5" to="-E1"/>
    <trip id="440" depart="306.00" from="-E4" to="-E5"/>
    <trip id="442" depart="307.00" from="E5" to="E3"/>
    <trip id="443" depart="308.00" from="-E4" to="-E1"/>
    <trip id="444" depart="308.00" from="E5" to="E4"/>
    <trip id="445" depart="309.00" from="E5" to="E4"/>
    <trip id="446" depart="310.00" from="E5" to="-E1"/>
    <trip id="447" depart="311.00" from="E5" to="E3"/>
    <trip id="448" depart="311.00" from="E1" to="-E5"/>
    <trip id="449" depart="311.00" from="E5" to="E3"/>
    <trip id="450" depart="312.00" from="-E3" to="-E1"/>
    <trip id="451" depart="312.00" from="E5" to="E3"/>
    <trip id="452" depart="312.00" from="E1" to="E4"/>
    <trip id="453" depart="313.00" from="-E3" to="-E5"/>
    <trip id="454" depart="313.00" from="E1" to="E4"/>
    <trip id="455" depart="314.00" from="E5" to="E3"/>
    <trip id="456" depart="314.00" from="-E4" to="E3"/>
    <trip id="457" depart="315.00" from="E5" to="-E1"/>
    <trip id="458" depart="316.00" from="-E3" to="-E5"/>
    <trip id="459" depart="317.00" from="E1" to="E4"/>
    <trip id="460" depart="317.00" from="E5" to="E4"/>
    <trip id="461" depart="318.00" from="E5" to="E3"/>
    <trip id="462" depart="319.00" from="-E4" to="-E1"/>
    <trip id="463" depart="319.00" from="E5" to="E3"/>
    <trip id="465" depart="321.00" from="E5" to="E3"/>
    <trip id="467" depart="323.00" from="E5" to="-E1"/>
    <trip id="468" depart="323.00" from="-E4" to="E3"/>
    <trip id="469" depart="324.00" from="-E4" to="E3"/>
    <trip id="471" depart="325.00" from="E5" to="E3"/>
    <trip id="472" depart="325.00" from="E5" to="E3"/>
    <trip id="474" depart="327.00" from="-E4" to="-E1"/>
    <trip id="476" depart="330.00" from="-E4" to="-E1"/>
    <trip id="477" depart="331.00" from="E5" to="-E1"/>
    <trip id="479" depart="332.00" from="E5" to="-E1"/>
    <trip id="480" depart="333.00" from="E5" to="E4"/>
    <trip id="481" depart="334.00" from="-E4" to="-E1"/>
    <trip id="483" depart="335.00" from="E5" to="-E1"/>
    <trip id="486" depart="337.00" from="E5" to="E4"/>
    <trip id="487" depart="339.00" from="E1" to="E3"/>
    <trip id="488" depart="339.00" from="-E4" to="-E1"/>
    <trip id="489" depart="341.00" from="E1" to="-E5"/>
    <trip id="490" depart="342.00" from="-E3" to="E4"/>
    <trip id="491" depart="342.00" from="-E3" to="-E5"/>
    <trip id="492" depart="343.00" from="-E4" to="-E1"/>
    <trip id="493" depart="343.00" from="-E4" to="-E5"/>
    <trip id="494" depart="344.00" from="-E3" to="E4"/>
    <trip id="495" depart="344.00" from="-E3" to="-E5"/>
    <trip id="497" depart="345.00" from="E1" to="E4"/>
    <trip id="499" depart="346.00" from="E5" to="E4"/>
    <trip id="500" depart="346.00" from="E1" to="-E5"/>
    <trip id="501" depart="347.00" from="-E4" to="-E1"/>
    <trip id="502" depart="347.00" from="E5" to="E4"/>
    <trip id="503" depart="347.00" from="E1" to="E3"/>
    <trip id="506" depart="349.00" from="E5" to="-E1"/>
    <trip id="507" depart="350.00" from="-E4" to="-E5"/>
    <trip id="509" depart="352.00" from="E1" to="-E5"/>
    <trip id="510" depart="354.00" from="-E4" to="E3"/>
    <trip id="511" depart="354.00" from="-E4" to="E3"/>
    <trip id="512" depart="355.00" from="-E3" to="-E1"/>
    <trip id="513" depart="355.00" from="-E3" to="E4"/>
    <trip id="514" depart="356.00" from="E5" to="E4"/>
    <trip id="515" depart="356.00" from="E1" to="E4"/>
    <trip id="516" depart="357.00" from="E1" to="E3"/>
    <trip id="517" depart="358.00" from="-E4" to="E3"/>
    <trip id="518" depart="358.00" from="E1" to="-E5"/>
    <trip id="519" depart="359.00" from="E1" to="E3"/>
    <trip id="524" depart="361.00" from="E1" to="E4"/>
    <trip id="525" depart="362.00" from="E5" to="E4"/>
    <trip id="526" depart="362.00" from="-E3" to="E4"/>
    <trip id="527" depart="364.00" from="E1" to="E4"/>
    <trip id="528" depart="364.00" from="E1" to="E3"/>
    <trip id="529" depart="365.00" from="-E4" to="-E1"/>
    <trip id="530" depart="366.00" from="E1" to="-E5"/>
    <trip id="532" depart="367.00" from="-E3" to="E4"/>
    <trip id="533" depart="367.00" from="-E3" to="-E5"/>
    <trip id="534" depart="368.00" from="-E3" to="E4"/>
    <trip id="536" depart="370.00" from="E5" to="E3"/>
    <trip id="537" depart="370.00" from="-E4" to="-E5"/>
    <trip id="538" depart="371.00" from="E1" to="E3"/>
    <trip id="539" depart="371.00" from="E5" to="-E1"/>
    <trip id="540" depart="373.00" from="E1" to="E4"/>
    <trip id="541" depart="373.00" from="E5" to="-E1"/>
    <trip id="542" depart="374.00" from="E5" to="-E1"/>
    <trip id="544" depart="374.00" from="E1" to="E4"/>
    <trip id="546" depart="375.00" from="E1" to="E4"/>
    <trip id="547" depart="376.00" from="E5" to="-E1"/>
    <trip id="548" depart="377.00" from="-E3" to="E4"/>
    <trip id="549" depart="378.00" from="E5" to="-E1"/>
    <trip id="550" depart="378.00" from="-E4" to="E3"/>
    <trip id="551" depart="379.00" from="-E3" to="-E1"/>
    <trip id="552" depart="379.00" from="E1" to="E3"/>
    <trip id="553" depart="379.00" from="-E3" to="-E5"/>
    <trip id="554" depart="380.00" from="-E3" to="E4"/>
    <trip id="555" depart="380.00" from="E1" to="E3"/>
    <trip id="557" depart="381.00" from="-E4" to="-E1"/>
    <trip id="558" depart="381.00" from="E1" to="-E5"/>
    <trip id="559" depart="382.00" from="-E4" to="-E5"/>
    <trip id="560" depart="384.00" from="E5" to="E4"/>
    <trip id="562" depart="385.00" from="-E4" to="E3"/>
    <trip id="563" depart="385.00" from="E1" to="E4"/>
    <trip id="564" depart="386.00" from="E1" to="-E5"/>
    <trip id="565" depart="387.00" from="E5" to="E4"/>
    <trip id="566" depart="387.00" from="E1" to="E4"/>
    <trip id="567" depart="388.00" from="-E3" to="E4"/>
    <trip id="568" depart="389.00" from="-E4" to="E3"/>
    <trip id="569" depart="389.00" from="E5" to="E3"/>
    <trip id="571" depart="391.00" from="E1" to="E4"/>
    <trip id="572" depart="391.00" from="-E3" to="-E5"/>
    <trip id="573" depart="392.00" from="E1" to="-E5"/>
    <trip id="574" depart="392.00" from="-E4" to="-E5"/>
    <trip id="575" depart="393.00" from="E5" to="E3"/>
    <trip id="576" depart="394.00" from="-E4" to="-E5"/>
    <trip id="577" depart="396.00" from="E5" to="E3"/>
    <trip id="578" depart="397.00" from="E5" to="E3"/>
    <trip id="579" depart="398.00" from="-E3" to="E4"/>
    <trip id="581" depart="398.00" from="E1" to="-E5"/>
    <trip id="583" depart="400.00" from="-E4" to="-E1"/>
    <trip id="584" depart="400.00" from="-E3" to="-E5"/>
    <trip id="585" depart="401.00" from="E1" to="-E5"/>
    <trip id="586" depart="402.00" from="-E4" to="E3"/>
    <trip id="587" depart="402.00" from="-E3" to="E4"/>
    <trip id="589" depart="403.00" from="E5" to="E4"/>
    <trip id="590" depart="403.00" from="-E3" to="-E1"/>
    <trip id="592" depart="404.00" from="-E3" to="-E1"/>
    <trip id="596" depart="406.00" from="-E3" to="E4"/>
    <trip id="597" depart="407.00" from="-E3" to="-E5"/>
    <trip id="598" depart="411.00" from="-E4" to="E3"/>
    <trip id="599" depart="411.00" from="E1" to="E4"/>
    <trip id="600" depart="411.00" from="E5" to="E3"/>
    <trip id="603" depart="414.00" from="E1" to="E3"/>
    <trip id="604" depart="414.00" from="E1" to="E3"/>
    <trip id="605" depart="415.00" from="-E3" to="-E1"/>
    <trip id="606" depart="416.00" from="-E4" to="-E1"/>
    <trip id="607" depart="420.00" from="E5" to="E4"/>
    <trip id="608" depart="420.00" from="E1" to="E3"/>
    <trip id="609" depart="421.00" from="-E4" to="E3"/>
    <trip id="610" depart="422.00" from="E1" to="E4"/>
    <trip id="611" depart="422.00" from="E1" to="E3"/>
    <trip id="612" depart="423.00" from="-E4" to="E3"/>
    <trip id="613" depart="423.00" from="E1" to="E4"/>
    <trip id="614" depart="425.00" from="-E4" to="E3"/>
    <trip id="615" depart="425.00" from="E5" to="-E1"/>
    <trip id="617" depart="428.00" from="-E3" to="-E1"/>
    <trip id="622" depart="430.00" from="E1" to="E4"/>
    <trip id="623" depart="431.00" from="-E4" to="-E5"/>
    <trip id="624" depart="432.00" from="E1" to="-E5"/>
    <trip id="625" depart="432.00" from="-E4" to="E3"/>
    <trip id="626" depart="433.00" from="E1" to="E3"/>
    <trip id="628" depart="434.00" from="E1" to="-E5"/>
    <trip id="629" depart="436.00" from="-E3" to="E4"/>
    <trip id="630" depart="436.00" from="E5" to="-E1"/>
    <trip id="631" depart="437.00" from="E1" to="E4"/>
    <trip id="634" depart="438.00" from="E5" to="E4"/>
    <trip id="635" depart="439.00" from="-E4" to="-E1"/>
    <trip id="636" depart="439.00" from="E5" to="E4"/>
    <trip id="637" depart="440.00" from="-E4" to="-E5"/>
    <trip id="638" depart="440.00" from="-E4" to="-E5"/>
    <trip id="639" depart="442.00" from="E1" to="-E5"/>
    <trip id="641" depart="442.00" from="E1" to="-E5"/>
    <trip id="644" depart="448.00" from="E5" to="E3"/>
    <trip id="646" depart="449.00" from="E5" to="E4"/>
    <trip id="647" depart="449.00" from="-E3" to="-E5"/>
    <trip id="648" depart="450.00" from="E1" to="E3"/>
    <trip id="649" depart="451.00" from="-E3" to="-E5"/>
    <trip id="650" depart="452.00" from="-E3" to="-E1"/>
    <trip id="652" depart="454.00" from="E5" to="E4"/>
    <trip id="654" depart="455.00" from="E1" to="-E5"/>
    <trip id="655" depart="456.00" from="-E4" to="-E1"/>
    <trip id="656" depart="458.00" from="-E3" to="-E1"/>
    <trip id="657" depart="458.00" from="E5" to="E4"/>
    <trip id="660" depart="464.00" from="E1" to="E4"/>
    <trip id="661" depart="465.00" from="E1" to="E4"/>
    <trip id="662" depart="465.00" from="E5" to="-E1"/>
    <trip id="663" depart="465.00" from="-E4" to="-E5"/>
    <trip id="665" depart="467.00" from="-E3" to="-E5"/>
    <trip id="666" depart="467.00" from="E5" to="E4"/>
    <trip id="667" depart="467.00" from="E5" to="E4"/>
    <trip id="668" depart="468.00" from="-E4" to="-E5"/>
    <trip id="669" depart="468.00" from="-E3" to="E4"/>
    <trip id="670" depart="469.00" from="E5" to="-E1"/>
    <trip id="671" depart="470.00" from="E1" to="E4"/>
    <trip id="673" depart="471.00" from="E5" to="E4"/>
    <trip id="674" depart="471.00" from="-E3" to="-E1"/>
    <trip id="677" depart="472.00" from="-E3" to="-E1"/>
    <trip id="678" depart="473.00" from="-E4" to="E3"/>