<?xml version="1.0" encoding="UTF-8"?>

<!-- generated on 2022-11-08 19:04:58 by Eclipse SUMO polyconvert Version 1.14.1
<configuration xmlns:xsi="http://www.w3.org/2001/XMLSchema-instance" xsi:noNamespaceSchemaLocation="http://sumo.dlr.de/xsd/polyconvertConfiguration.xsd">

    <input>
        <net-file value="osm.net.xml"/>
        <osm-files value="osm_bbox.osm.xml.gz"/>
        <osm.keep-full-type value="true"/>
        <type-file value="C:\Program%20Files%20(x86)\Eclipse\Sumo\data\typemap\osmPolyconvert.typ.xml"/>
    </input>

    <output>
        <output-file value="osm.poly.xml"/>
    </output>

    <report>
        <verbose value="true"/>
    </report>

</configuration>
-->

<additional xmlns:xsi="http://www.w3.org/2001/XMLSchema-instance" xsi:noNamespaceSchemaLocation="http://sumo.dlr.de/xsd/additional_file.xsd">
    <location netOffset="-526405.38,-2224197.08" convBoundary="-942.95,-823.19,1878.76,2052.90" origBoundary="-98.756421,20.107301,-98.729391,20.133252" projParameter="+proj=utm +zone=14 +ellps=WGS84 +datum=WGS84 +units=m +no_defs"/>

    <poly id="1062800434" type="building.yes" color="255,230,230" fill="1" layer="-1.00" shape="989.295877,653.206044 1007.190908,666.414137 1001.639302,673.852995 983.733804,660.655957 989.295877,653.206044"/>
    <poly id="1062800435" type="building.yes" color="255,230,230" fill="1" layer="-1.00" shape="994.983683,645.568204 1012.889170,658.776319 1007.337559,666.215175 989.432057,653.018132 994.983683,645.568204"/>
    <poly id="1062800436" type="building.yes" color="255,230,230" fill="1" layer="-1.00" shape="983.451131,660.943236 1001.346158,674.151323 995.794556,681.590183 977.889062,668.393151 983.451131,660.943236"/>
    <poly id="1062800437" type="building.yes" color="255,230,230" fill="1" layer="-1.00" shape="977.648321,668.603031 995.553798,681.811129 990.002201,689.249991 972.096711,676.052965 977.648321,668.603031"/>
    <poly id="1062800438" type="building.yes" color="255,230,230" fill="1" layer="-1.00" shape="971.918720,676.240811 989.813741,689.448887 984.262149,696.887750 966.356662,683.690730 971.918720,676.240811"/>
    <poly id="1062800439" type="building.yes" color="255,230,230" fill="1" layer="-1.00" shape="1001.100260,637.798245 1019.005751,651.006367 1013.454134,658.445221 995.548629,645.248171 1001.100260,637.798245"/>
    <poly id="1062800440" type="building.yes" color="255,230,230" fill="1" layer="-1.00" shape="1006.819521,630.105127 1024.725016,643.313255 1019.173394,650.752107 1001.267885,637.555051 1006.819521,630.105127"/>
    <poly id="1062800441" type="building.yes" color="255,230,230" fill="1" layer="-1.00" shape="1012.559657,622.434176 1030.465156,635.642309 1024.903076,643.081143 1007.008016,629.884099 1012.559657,622.434176"/>
    <poly id="1062800442" type="building.yes" color="255,230,230" fill="1" layer="-1.00" shape="1019.891946,612.641012 1037.640817,625.749309 1030.538934,635.255106 1012.790068,622.146816 1019.891946,612.641012"/>
    <poly id="1062800443" type="building.yes" color="255,230,230" fill="1" layer="-1.00" shape="1012.173903,621.802792 994.268393,608.583612 1001.537858,598.856739 1019.443354,612.086992 1012.173903,621.802792"/>
    <poly id="1062800444" type="building.yes" color="255,230,230" fill="1" layer="-1.00" shape="1006.444306,629.418428 988.538766,616.221386 994.090402,608.771458 1011.995947,621.968505 1006.444306,629.418428"/>
    <poly id="1062800445" type="building.yes" color="255,230,230" fill="1" layer="-1.00" shape="1000.641477,637.078216 982.746392,623.881196 988.298024,616.431267 1006.203565,629.628308 1000.641477,637.078216"/>
    <poly id="1062800446" type="building.yes" color="255,230,230" fill="1" layer="-1.00" shape="994.807172,644.815420 976.901639,631.618390 982.453266,624.168458 1000.358803,637.365494 994.807172,644.815420"/>
    <poly id="1062800447" type="building.yes" color="255,230,230" fill="1" layer="-1.00" shape="989.108914,652.453244 971.203385,639.256219 976.754989,631.817352 994.660522,645.014382 989.108914,652.453244"/>
    <poly id="1062800448" type="building.yes" color="255,230,230" fill="1" layer="-1.00" shape="982.992330,660.234273 965.086821,647.026188 970.648873,639.587336 988.543950,652.784343 982.992330,660.234273"/>
    <poly id="1062800449" type="building.yes" color="255,230,230" fill="1" layer="-1.00" shape="977.273107,667.916332 959.367585,654.719320 964.929632,647.280465 982.835158,660.477483 977.273107,667.916332"/>
    <poly id="1062800450" type="building.yes" color="255,230,230" fill="1" layer="-1.00" shape="971.533001,675.587295 953.637935,662.390305 959.189542,654.940366 977.095047,668.148444 971.533001,675.587295"/>
    <poly id="1062800451" type="building.yes" color="255,230,230" fill="1" layer="-1.00" shape="965.886904,683.302672 947.981389,670.105671 953.543427,662.666813 971.438492,675.863803 965.886904,683.302672"/>
    <poly id="1062800452" type="building.yes" color="255,230,230" fill="1" layer="-1.00" shape="1076.674073,656.940294 1092.500904,636.116435 1101.980682,643.224889 1086.164281,664.059822 1076.674073,656.940294"/>
    <poly id="1062800453" type="building.yes" color="255,230,230" fill="1" layer="-1.00" shape="1059.318369,659.679473 1041.412899,646.482376 1046.975002,639.032481 1064.870005,652.240633 1059.318369,659.679473"/>
    <poly id="1062800454" type="building.yes" color="255,230,230" fill="1" layer="-1.00" shape="1053.525978,667.339260 1035.620512,654.142169 1041.172157,646.692255 1059.077627,659.889352 1053.525978,667.339260"/>
    <poly id="1062800455" type="building.yes" color="255,230,230" fill="1" layer="-1.00" shape="1047.681207,675.076430 1029.775745,661.879345 1035.327385,654.429430 1053.232834,667.637587 1047.681207,675.076430"/>
    <poly id="1062800456" type="building.yes" color="255,230,230" fill="1" layer="-1.00" shape="1041.982935,682.714237 1024.077477,669.517157 1029.639547,662.078323 1047.545009,675.275408 1041.982935,682.714237"/>
    <poly id="1062800457" type="building.yes" color="255,230,230" fill="1" layer="-1.00" shape="1035.866338,690.495248 1017.971353,677.287125 1023.522965,669.848272 1041.428424,683.045351 1035.866338,690.495248"/>
    <poly id="1062800458" type="building.yes" color="255,230,230" fill="1" layer="-1.00" shape="1030.157553,698.177307 1012.252102,684.980239 1017.803710,677.541385 1035.709165,690.738458 1030.157553,698.177307"/>
    <poly id="1062800459" type="building.yes" color="255,230,230" fill="1" layer="-1.00" shape="1024.417434,705.848253 1006.511986,692.651190 1012.063589,685.212334 1029.969040,698.409402 1024.417434,705.848253"/>
    <poly id="1062800460" type="building.yes" color="255,230,230" fill="1" layer="-1.00" shape="1018.771323,713.563613 1000.865879,700.366557 1006.417477,692.927698 1024.322925,706.124761 1018.771323,713.563613"/>
    <poly id="1062800461" type="building.yes" color="255,230,230" fill="1" layer="-1.00" shape="1024.792698,706.501754 1042.698100,719.709902 1037.146495,727.148749 1019.241079,713.951673 1024.792698,706.501754"/>
    <poly id="1062800462" type="building.yes" color="255,230,230" fill="1" layer="-1.00" shape="1030.532765,698.864007 1048.427718,712.072144 1042.876108,719.510989 1024.970688,706.313908 1030.532765,698.864007"/>
    <poly id="1062800463" type="building.yes" color="255,230,230" fill="1" layer="-1.00" shape="1036.325135,691.204212 1054.230545,704.412372 1048.668477,711.851199 1030.773506,698.654128 1036.325135,691.204212"/>
    <poly id="1062800464" type="building.yes" color="255,230,230" fill="1" layer="-1.00" shape="1042.169896,683.467038 1060.064856,696.675187 1054.513236,704.114028 1036.607809,690.916935 1042.169896,683.467038"/>
    <poly id="1062800465" type="building.yes" color="255,230,230" fill="1" layer="-1.00" shape="1047.868168,675.829232 1065.763132,689.037386 1060.211507,696.476226 1042.306076,683.279126 1047.868168,675.829232"/>
    <poly id="1062800466" type="building.yes" color="255,230,230" fill="1" layer="-1.00" shape="1053.984758,668.059291 1071.879726,681.267452 1066.328096,688.706289 1048.422662,675.509184 1053.984758,668.059291"/>
    <poly id="1062800467" type="building.yes" color="255,230,230" fill="1" layer="-1.00" shape="1059.704033,660.366190 1077.599004,673.574356 1072.047369,681.013192 1054.141931,667.816081 1059.704033,660.366190"/>
    <poly id="1062800468" type="building.yes" color="255,230,230" fill="1" layer="-1.00" shape="1065.433713,652.706306 1083.339158,665.903428 1077.787518,673.342262 1059.882076,660.145146 1065.433713,652.706306"/>
    <poly id="1062800473" type="building.yes" color="255,230,230" fill="1" layer="-1.00" shape="1129.187699,551.473201 1111.282168,538.276034 1116.844335,530.826161 1134.739416,544.023317 1129.187699,551.473201"/>
    <poly id="1062800474" type="building.yes" color="255,230,230" fill="1" layer="-1.00" shape="1123.071034,559.243115 1105.175960,546.045970 1110.727651,538.607145 1128.633182,551.804312 1123.071034,559.243115"/>
    <poly id="1062800475" type="building.yes" color="255,230,230" fill="1" layer="-1.00" shape="1117.351698,566.936195 1099.456628,553.739056 1105.008332,546.289163 1122.913859,559.486324 1117.351698,566.936195"/>
    <poly id="1062800476" type="building.yes" color="255,230,230" fill="1" layer="-1.00" shape="1111.621950,574.607128 1093.716431,561.409979 1099.268130,553.960084 1117.173653,567.157239 1111.621950,574.607128"/>
    <poly id="1062800477" type="building.yes" color="255,230,230" fill="1" layer="-1.00" shape="1105.965306,582.322444 1088.070243,569.125316 1093.621938,561.675420 1111.527457,574.872569 1105.965306,582.322444"/>
    <poly id="1062800478" type="building.yes" color="255,230,230" fill="1" layer="-1.00" shape="1111.997214,575.260631 1129.902705,588.457800 1124.340551,595.907668 1106.445516,582.710522 1111.997214,575.260631"/>
    <poly id="1062800479" type="building.yes" color="255,230,230" fill="1" layer="-1.00" shape="1117.737363,567.622913 1135.632387,580.831137 1130.080698,588.269955 1112.175207,575.072786 1117.737363,567.622913"/>
    <poly id="1062800487" type="building.yes" color="255,230,230" fill="1" layer="-1.00" shape="1075.164568,533.858879 1093.101557,547.011793 1087.570747,554.472789 1069.633778,541.308815 1075.164568,533.858879"/>
    <poly id="1062800488" type="building.yes" color="255,230,230" fill="1" layer="-1.00" shape="1080.883843,526.198984 1098.820819,539.362970 1093.279568,546.812882 1075.342578,533.659967 1080.883843,526.198984"/>
    <poly id="1062800489" type="building.yes" color="255,230,230" fill="1" layer="-1.00" shape="1086.655404,518.528107 1104.592401,531.681033 1099.061580,539.142025 1081.114134,525.989089 1086.655404,518.528107"/>
    <poly id="1062800490" type="building.yes" color="255,230,230" fill="1" layer="-1.00" shape="1092.479355,510.779851 1110.416356,523.932783 1104.885531,531.393773 1086.938081,518.240831 1092.479355,510.779851"/>
    <poly id="1062800491" type="building.yes" color="255,230,230" fill="1" layer="-1.00" shape="1098.156834,503.119896 1116.093839,516.272833 1110.552556,523.733805 1092.615555,510.580874 1098.156834,503.119896"/>
    <poly id="1062800492" type="building.yes" color="255,230,230" fill="1" layer="-1.00" shape="1104.252619,495.338874 1122.189628,508.491818 1116.648339,515.952788 1098.711335,502.799850 1104.252619,495.338874"/>
    <poly id="1062800493" type="building.yes" color="255,230,230" fill="1" layer="-1.00" shape="1109.951102,487.623625 1127.888096,500.787640 1122.346821,508.237542 1104.409812,495.084599 1109.951102,487.623625"/>
    <poly id="1062800494" type="building.yes" color="255,230,230" fill="1" layer="-1.00" shape="1115.670442,479.941608 1133.607440,493.105629 1128.066160,500.555530 1110.129148,487.402581 1115.670442,479.941608"/>
    <poly id="1062800495" type="building.yes" color="255,230,230" fill="1" layer="-1.00" shape="1121.295783,472.215181 1139.232802,485.368141 1133.701952,492.829122 1115.764936,479.676167 1121.295783,472.215181"/>
    <poly id="1062800496" type="building.yes" color="255,230,230" fill="1" layer="-1.00" shape="1115.284723,479.288089 1097.358132,466.135170 1102.888975,458.674178 1120.826005,471.838185 1115.284723,479.288089"/>
    <poly id="1062800497" type="building.yes" color="255,230,230" fill="1" layer="-1.00" shape="1109.575871,486.947989 1091.638848,473.783994 1097.169686,466.322999 1115.106712,479.487000 1109.575871,486.947989"/>
    <poly id="1062800498" type="building.yes" color="255,230,230" fill="1" layer="-1.00" shape="1103.793837,494.618842 1085.856818,481.454852 1091.398086,474.004939 1109.335126,487.157868 1103.793837,494.618842"/>
    <poly id="1062800499" type="building.yes" color="255,230,230" fill="1" layer="-1.00" shape="1097.969874,502.367094 1080.032842,489.214177 1085.574123,481.753195 1103.511159,494.906118 1097.969874,502.367094"/>
    <poly id="1062800500" type="building.yes" color="255,230,230" fill="1" layer="-1.00" shape="1092.292395,510.027050 1074.355384,496.863071 1079.896660,489.402088 1097.833675,502.566072 1092.292395,510.027050"/>
    <poly id="1062800501" type="building.yes" color="255,230,230" fill="1" layer="-1.00" shape="1086.196621,517.808076 1068.259595,504.655170 1073.800866,497.194184 1091.737895,510.347096 1086.196621,517.808076"/>
    <poly id="1062800502" type="building.yes" color="255,230,230" fill="1" layer="-1.00" shape="1080.498176,525.512267 1062.561155,512.359367 1068.102421,504.898379 1086.039446,518.051285 1080.498176,525.512267"/>
    <poly id="1062800503" type="building.yes" color="255,230,230" fill="1" layer="-1.00" shape="1074.778866,533.194295 1056.841849,520.041400 1062.383110,512.580411 1080.320131,525.733311 1074.778866,533.194295"/>
    <poly id="1062800504" type="building.yes" color="255,230,230" fill="1" layer="-1.00" shape="1069.143113,540.920721 1051.216552,527.767849 1056.747356,520.306841 1074.684355,533.470802 1069.143113,540.920721"/>
    <poly id="1062800505" type="building.yes" color="255,230,230" fill="1" layer="-1.00" shape="921.025959,642.253810 938.983908,655.373401 933.474085,662.845545 915.505688,649.725943 921.025959,642.253810"/>
    <poly id="1062800506" type="building.yes" color="255,230,230" fill="1" layer="-1.00" shape="926.724226,634.593832 944.682178,647.713429 939.172368,655.174504 921.203949,642.065963 926.724226,634.593832"/>
    <poly id="1062800507" type="building.yes" color="255,230,230" fill="1" layer="-1.00" shape="932.474795,626.911805 950.443221,640.020358 944.922936,647.492481 926.954513,634.383935 932.474795,626.911805"/>
    <poly id="1062800508" type="building.yes" color="255,230,230" fill="1" layer="-1.00" shape="938.288224,619.141349 956.246183,632.260957 950.736364,639.722029 932.767938,626.613477 938.288224,619.141349"/>
    <poly id="1062800509" type="building.yes" color="255,230,230" fill="1" layer="-1.00" shape="943.944712,611.470245 961.913128,624.589875 956.392833,632.061995 938.424421,618.942370 943.944712,611.470245"/>
    <poly id="1062800510" type="building.yes" color="255,230,230" fill="1" layer="-1.00" shape="950.019502,603.678071 967.987939,616.786641 962.467639,624.258759 944.499206,611.150194 950.019502,603.678071"/>
    <poly id="1062800511" type="building.yes" color="255,230,230" fill="1" layer="-1.00" shape="955.707445,595.951688 973.665416,609.071314 968.155564,616.543446 950.187144,603.423810 955.707445,595.951688"/>
    <poly id="1062800512" type="building.yes" color="255,230,230" fill="1" layer="-1.00" shape="961.405794,588.258523 979.374221,601.378170 973.853912,608.850285 955.885488,595.730643 961.405794,588.258523"/>
    <poly id="1062800513" type="building.yes" color="255,230,230" fill="1" layer="-1.00" shape="967.020596,580.520963 984.978592,593.629533 979.468730,601.101662 961.500285,587.993081 967.020596,580.520963"/>
    <poly id="1062800514" type="building.yes" color="255,230,230" fill="1" layer="-1.00" shape="961.020072,587.605007 943.062069,574.485395 948.582359,567.024337 966.540383,580.132888 961.020072,587.605007"/>
    <poly id="1062800515" type="building.yes" color="255,230,230" fill="1" layer="-1.00" shape="955.321758,595.276040 937.363759,582.156434 942.884061,574.684308 960.842064,587.803920 955.321758,595.276040"/>
    <poly id="1062800516" type="building.yes" color="255,230,230" fill="1" layer="-1.00" shape="949.560716,602.958042 931.602721,589.838442 937.123018,582.366315 955.081017,595.485920 949.560716,602.958042"/>
    <poly id="1062800517" type="building.yes" color="255,230,230" fill="1" layer="-1.00" shape="943.757729,610.728511 925.789285,597.608900 931.309577,590.136771 949.278025,603.256387 943.757729,610.728511"/>
    <poly id="1062800518" type="building.yes" color="255,230,230" fill="1" layer="-1.00" shape="938.101258,618.388549 920.132818,605.268944 925.653105,597.796813 943.621549,610.916424 938.101258,618.388549"/>
    <poly id="1062800519" type="building.yes" color="255,230,230" fill="1" layer="-1.00" shape="932.016008,626.191778 914.058024,613.072195 919.578307,605.600062 937.536294,618.719650 932.016008,626.191778"/>
    <poly id="1062800520" type="building.yes" color="255,230,230" fill="1" layer="-1.00" shape="926.338555,633.907118 908.370123,620.787525 913.890400,613.315390 931.858837,626.434989 926.338555,633.907118"/>
    <poly id="1062800521" type="building.yes" color="255,230,230" fill="1" layer="-1.00" shape="920.629784,641.600279 902.671808,628.480707 908.192063,621.019637 926.160513,634.128164 920.629784,641.600279"/>
    <poly id="1062800522" type="building.yes" color="255,230,230" fill="1" layer="-1.00" shape="915.025458,649.348936 897.057033,636.229354 902.577300,628.757216 920.545729,641.876803 915.025458,649.348936"/>
    <poly id="1062800523" type="building.yes" color="255,230,230" fill="1" layer="-1.00" shape="1066.722999,650.417623 1081.567434,629.492607 1090.964420,636.080809 1076.109527,657.005801 1066.722999,650.417623"/>
    <poly id="1062800524" type="building.yes" color="255,230,230" fill="1" layer="-1.00" shape="1048.024435,636.389297 1065.742252,649.276250 1076.259268,634.984163 1058.551897,622.097217 1048.024435,636.389297"/>
    <poly id="1062800525" type="building.yes" color="255,230,230" fill="1" layer="-1.00" shape="1067.522625,627.235052 1071.471668,621.918409 1080.857721,628.816444 1076.908694,634.122019 1067.522625,627.235052"/>
    <poly id="1062800526" type="building.yes" color="255,230,230" fill="1" layer="-1.00" shape="1058.950493,621.212544 1062.910128,615.807386 1071.043477,621.685342 1067.083824,627.101565 1058.950493,621.212544"/>
    <poly id="1062800527" type="building.yes" color="255,230,230" fill="1" layer="-1.00" shape="1104.762078,583.061982 1087.472746,570.197801 1073.991886,588.092806 1091.281210,600.956974 1104.762078,583.061982"/>
    <poly id="1062800528" type="building.yes" color="255,230,230" fill="1" layer="-1.00" shape="1106.047406,583.285339 1123.420473,596.061141 1109.708832,614.464803 1092.346209,601.700096 1106.047406,583.285339"/>
    <poly id="1062800529" type="building.yes" color="255,230,230" fill="1" layer="-1.00" shape="1002.238743,598.503721 1015.719207,580.807854 1025.679240,588.315407 1012.198789,606.000201 1002.238743,598.503721"/>
    <poly id="1062800530" type="building.yes" color="255,230,230" fill="1" layer="-1.00" shape="1012.742396,605.956792 1026.139262,588.249734 1033.593702,593.816748 1020.196834,611.523799 1012.742396,605.956792"/>
    <poly id="1062800531" type="building.yes" color="255,230,230" fill="1" layer="-1.00" shape="1020.771345,611.768162 1034.168215,594.061111 1041.622633,599.639194 1028.225778,617.335173 1020.771345,611.768162"/>
    <poly id="1062800532" type="building.yes" color="255,230,230" fill="1" layer="-1.00" shape="1028.924849,618.133046 1042.677181,600.382296 1051.958416,607.479343 1038.206062,625.241152 1028.924849,618.133046"/>
    <poly id="1088842457" type="leisure.park" color="207,245,201" fill="1" layer="-2.00" shape="680.038928,434.772091 646.679965,477.823323 697.089726,513.856009 686.349396,490.445212 680.766641,470.926704 680.513030,452.534180 680.038928,434.772091"/>
    <poly id="1095524292" type="building.yes" color="255,230,230" fill="1" layer="-1.00" shape="925.439017,827.377273 937.466752,836.027851 953.073578,815.314183 940.993417,806.763108 925.439017,827.377273"/>
    <poly id="1095524293" type="building.yes" color="255,230,230" fill="1" layer="-1.00" shape="925.439017,827.377273 911.553240,817.119179 899.747910,833.257411 910.417263,841.629183 913.152623,843.669669 925.023235,852.530251 937.466752,836.027851 925.439017,827.377273"/>
    <poly id="1095524297" type="amenity.monastery" color="237,199,199" fill="1" layer="-1.00" shape="861.051603,853.934945 861.386811,853.470687 880.786705,826.787111 886.591830,830.923930 896.364479,837.888871 885.840766,849.956735 877.869817,860.534660 875.136012,864.171178 861.051603,853.934945"/>
    <poly id="1095524301" type="amenity.school" color="237,199,199" fill="1" layer="-2.00" shape="846.549546,843.399281 846.884736,842.946088 861.790228,822.806688 867.205654,815.489301 871.814524,809.266213 875.677535,812.094165 881.054425,816.031117 885.982358,819.646446 880.786705,826.787111 861.386811,853.470687 861.051603,853.934945 846.549546,843.399281"/>
    <poly id="1095524302" type="building.yes" color="255,230,230" fill="1" layer="-1.00" shape="861.790228,822.806688 857.551343,819.712560 848.019059,812.759083 834.590374,830.986342 835.419821,835.303485 846.549546,843.399281 846.884736,842.946088 861.790228,822.806688"/>
    <poly id="1095524303" type="building.yes" color="255,230,230" fill="1" layer="-1.00" shape="857.551343,819.712560 862.935913,812.074202 867.205654,815.489301 871.814524,809.266213 858.043437,799.163270 848.019059,812.759083 857.551343,819.712560"/>
    <poly id="1095524304" type="building.yes" color="255,230,230" fill="1" layer="-1.00" shape="871.814524,809.266213 875.677535,812.094165 881.054425,816.031117 885.982358,819.646446 880.786705,826.787111 861.386811,853.470687 846.884736,842.946088 861.790228,822.806688 867.205654,815.489301 871.814524,809.266213"/>
    <poly id="1095524305" type="building.yes" color="255,230,230" fill="1" layer="-1.00" shape="872.467277,779.587504 885.715953,789.556844 882.342744,794.332184 881.242782,795.890804 876.172468,803.086998 871.814524,809.266213 858.043437,799.163270 872.467277,779.587504"/>
    <poly id="1095524306" type="building.yes" color="255,230,230" fill="1" layer="-1.00" shape="885.715953,789.556844 896.013737,774.943384 882.785007,765.582712 872.467277,779.587504 885.715953,789.556844"/>
    <poly id="1095524307" type="building.yes" color="255,230,230" fill="1" layer="-1.00" shape="925.439017,827.377273 911.553240,817.119179 926.574466,796.559496 940.993417,806.763108 925.439017,827.377273"/>
    <poly id="1095524308" type="building.yes" color="255,230,230" fill="1" layer="-1.00" shape="911.553240,817.119179 905.926347,812.639577 911.573244,804.370868 907.417463,801.608847 886.591830,830.923930 880.786705,826.787111 885.982358,819.646446 887.731728,817.225676 890.884720,812.903708 896.824142,804.723984 910.850373,785.435348 926.574466,796.559496 911.553240,817.119179"/>
    <poly id="1095524310" type="building.yes" color="255,230,230" fill="1" layer="-1.00" shape="882.342744,794.332184 896.824142,804.723984 910.850373,785.435348 896.013737,774.943384 885.715953,789.556844 882.342744,794.332184"/>
    <poly id="1095524311" type="building.yes" color="255,230,230" fill="1" layer="-1.00" shape="881.242782,795.890804 890.294680,802.566888 889.100143,804.446281 891.344815,806.120807 888.317044,810.575766 890.884720,812.903708 887.731728,817.225676 882.709913,813.488471 881.054425,816.031117 875.677535,812.094165 877.458401,809.584913 875.213848,807.832925 877.675759,804.284511 876.172468,803.086998 881.242782,795.890804"/>
    <poly id="1095524313" type="amenity.parking" color="184,184,179" fill="1" layer="-1.00" shape="886.591830,830.923930 896.364479,837.888871 899.747910,833.257411 911.553240,817.119179 905.926347,812.639577 911.573244,804.370868 907.417463,801.608847 886.591830,830.923930"/>
    <poly id="1096142809" type="leisure.playground" color="207,245,201" fill="1" layer="-2.00" shape="771.166153,655.774602 782.175197,640.841265 783.756879,638.707946 792.890946,626.316929 801.323213,614.876519 803.323904,612.168410 821.667836,625.852861 790.011737,669.493002 771.166153,655.774602"/>
    <poly id="1096142811" type="amenity.arts_centre" color="237,199,199" fill="1" layer="-1.00" shape="722.352591,588.526241 727.320451,606.826518 744.157230,601.706953 745.816474,603.458010 745.765694,582.398828 727.452640,582.370279 722.352591,588.526241"/>
    <poly id="1096142811#1" type="building.yes" color="255,230,230" fill="1" layer="-1.00" shape="722.352591,588.526241 727.320451,606.826518 744.157230,601.706953 745.816474,603.458010 745.765694,582.398828 727.452640,582.370279 722.352591,588.526241"/>
    <poly id="1096142812" type="building.roof" color="255,230,230" fill="1" layer="-1.00" shape="725.465326,589.914374 730.621710,607.971489 750.353627,589.610123 729.256137,585.460578 725.465326,589.914374"/>
    <poly id="1096142818" type="leisure.garden" color="207,245,201" fill="1" layer="-2.00" shape="792.890946,626.316929 791.243009,624.023637 789.670643,620.192253 786.685251,617.587018 782.777002,616.916938 776.240234,619.385575 772.640744,621.803467 771.170172,626.415804 770.671419,631.206719 772.191352,635.148682 776.212106,637.401411 779.995196,637.894234 783.756879,638.707946 792.890946,626.316929"/>
    <poly id="1096142819" type="leisure.garden" color="207,245,201" fill="1" layer="-2.00" shape="801.323213,614.876519 794.442065,610.295399 785.976070,603.177632 770.797064,590.892510 761.777991,583.176313 753.875221,576.823013 741.033599,567.086805 737.283197,565.730873 735.662792,565.883275 729.607749,574.472325 725.849880,577.908076 706.712184,604.005715 707.210481,606.208677 755.333123,640.633374 753.510776,642.932314 701.807844,605.314964 734.948924,561.156867 803.323904,612.168410 801.323213,614.876519"/>
    <poly id="1096142819#1" type="natural.wood" color="140,196,107" fill="1" layer="-4.00" shape="801.323213,614.876519 794.442065,610.295399 785.976070,603.177632 770.797064,590.892510 761.777991,583.176313 753.875221,576.823013 741.033599,567.086805 737.283197,565.730873 735.662792,565.883275 729.607749,574.472325 725.849880,577.908076 706.712184,604.005715 707.210481,606.208677 755.333123,640.633374 753.510776,642.932314 701.807844,605.314964 734.948924,561.156867 803.323904,612.168410 801.323213,614.876519"/>
    <poly id="1096142821" type="leisure.garden" color="207,245,201" fill="1" layer="-2.00" shape="763.061201,611.552220 767.883446,615.964119 773.996493,617.091355 780.041867,614.699414 784.390545,614.462747 790.021768,616.231079 793.738955,612.075970 787.297800,606.864763 778.539903,599.248562 771.377506,594.036235 767.268492,594.749129 763.565128,596.746343 761.302867,599.620042 761.219320,606.270737 763.061201,611.552220"/>
    <poly id="1096142821#1" type="natural.wood" color="140,196,107" fill="1" layer="-4.00" shape="763.061201,611.552220 767.883446,615.964119 773.996493,617.091355 780.041867,614.699414 784.390545,614.462747 790.021768,616.231079 793.738955,612.075970 787.297800,606.864763 778.539903,599.248562 771.377506,594.036235 767.268492,594.749129 763.565128,596.746343 761.302867,599.620042 761.219320,606.270737 763.061201,611.552220"/>
    <poly id="1096142822" type="leisure.garden" color="207,245,201" fill="1" layer="-2.00" shape="766.425659,619.082531 768.521025,622.682338 769.150880,627.652074 767.535682,631.168626 764.637679,632.846175 761.736810,636.360721 756.822695,637.238354 751.107734,635.547367 745.962339,630.570588 744.516654,625.931568 747.025206,619.284655 752.578800,617.212859 755.006419,615.545640 761.768912,615.788583 766.425659,619.082531"/>
    <poly id="1096142822#1" type="natural.wood" color="140,196,107" fill="1" layer="-4.00" shape="766.425659,619.082531 768.521025,622.682338 769.150880,627.652074 767.535682,631.168626 764.637679,632.846175 761.736810,636.360721 756.822695,637.238354 751.107734,635.547367 745.962339,630.570588 744.516654,625.931568 747.025206,619.284655 752.578800,617.212859 755.006419,615.545640 761.768912,615.788583 766.425659,619.082531"/>
    <poly id="1096142823" type="leisure.garden" color="207,245,201" fill="1" layer="-2.00" shape="735.728611,570.597606 737.122162,568.452924 761.491089,586.174823 765.186580,589.223813 765.506865,591.625693 764.134942,593.305624 761.000649,592.337968 753.192804,585.442569 742.659551,576.783388 737.209784,572.591843 735.728611,570.597606"/>
    <poly id="1096142823#1" type="natural.wood" color="140,196,107" fill="1" layer="-4.00" shape="735.728611,570.597606 737.122162,568.452924 761.491089,586.174823 765.186580,589.223813 765.506865,591.625693 764.134942,593.305624 761.000649,592.337968 753.192804,585.442569 742.659551,576.783388 737.209784,572.591843 735.728611,570.597606"/>
    <poly id="1096142824" type="leisure.garden" color="207,245,201" fill="1" layer="-2.00" shape="757.532783,604.184527 756.457283,603.463542 755.203518,603.107465 753.907304,603.160775 752.694089,603.612599 751.678940,604.407786 750.966486,605.480103 750.619598,606.730050 750.669859,608.013815 751.200890,609.331529 752.150423,610.395371 753.403669,611.083435 754.814448,611.295895 756.215550,611.010358 757.439649,610.281894 758.340320,609.165606 758.802325,607.827309 758.773195,606.399715 758.325613,605.192794 757.532783,604.184527"/>