<?xml version="1.0" encoding="UTF-8"?>

<!-- generated on 2024-05-30 20:32:42.631163 by randomTrips.py v1_20_0+0002-343658e7c64
<configuration>
    <net-file value="osm.net.xml"/>
    <output-trip-file value="osm.passenger.trips.xml"/>
    <route-file value="osm.passenger.rou.xml"/>
    <lanes value="True"/>
    <seed value="975"/>
    <validate value="True"/>
    <end value="1000.0"/>
    <period value="0.7"/>
    <binomial value="4"/>
</configuration>
-->

<!-- generated on 2024-05-30 20:32:42 by Eclipse SUMO duarouter Version 1.20.0
<configuration xmlns:xsi="http://www.w3.org/2001/XMLSchema-instance" xsi:noNamespaceSchemaLocation="http://sumo.dlr.de/xsd/duarouterConfiguration.xsd">

    <input>
        <net-file value="osm.net.xml"/>
        <route-files value="osm.passenger.trips.xml"/>
    </input>

    <output>
        <output-file value="osm.passenger.rou.xml"/>
        <alternatives-output value="NUL"/>
    </output>

    <time>
        <begin value="0"/>
        <end value="1000.0"/>
    </time>

    <report>
        <no-warnings value="true"/>
        <ignore-errors value="true"/>
        <no-step-log value="true"/>
    </report>

</configuration>
-->

<routes xmlns:xsi="http://www.w3.org/2001/XMLSchema-instance" xsi:noNamespaceSchemaLocation="http://sumo.dlr.de/xsd/routes_file.xsd">
    <vehicle id="1" depart="2.00">
        <route edges="E5 E4"/>
    </vehicle>
    <vehicle id="2" depart="2.00">
        <route edges="E1 E4"/>
    </vehicle>
    <vehicle id="4" depart="4.00">
        <route edges="E5 E4"/>
    </vehicle>
    <vehicle id="6" depart="5.00">
        <route edges="-E4 E3"/>
    </vehicle>
    <vehicle id="7" depart="5.00">
        <route edges="E5 E4"/>
    </vehicle>
    <vehicle id="8" depart="6.00">
        <route edges="-E4 -E1"/>
    </vehicle>
    <vehicle id="13" depart="10.00">
        <route edges="-E4 -E5"/>
    </vehicle>
    <vehicle id="15" depart="12.00">
        <route edges="E5 E4"/>
    </vehicle>
    <vehicle id="16" depart="13.00">
        <route edges="-E4 E3"/>
    </vehicle>
    <vehicle id="17" depart="14.00">
        <route edges="E5 E4"/>
    </vehicle>
    <vehicle id="18" depart="15.00">
        <route edges="E5 E3"/>
    </vehicle>
    <vehicle id="19" depart="16.00">
        <route edges="-E3 -E1"/>
    </vehicle>
    <vehicle id="20" depart="16.00">
        <route edges="E1 E4"/>
    </vehicle>
    <vehicle id="21" depart="17.00">
        <route edges="-E3 E4"/>
    </vehicle>
    <vehicle id="24" depart="20.00">
        <route edges="E5 -E1"/>
    </vehicle>
    <vehicle id="25" depart="20.00">
        <route edges="-E3 -E5"/>
    </vehicle>
    <vehicle id="26" depart="21.00">
        <route edges="-E4 E3"/>
    </vehicle>
    <vehicle id="28" depart="22.00">
        <route edges="-E4 -E1"/>
    </vehicle>
    <vehicle id="29" depart="22.00">
        <route edges="E5 -E1"/>
    </vehicle>
    <vehicle id="31" depart="23.00">
        <route edges="E1 -E5"/>
    </vehicle>
    <vehicle id="33" depart="24.00">
        <route edges="-E3 E4"/>
    </vehicle>
    <vehicle id="34" depart="25.00">
        <route edges="-E3 -E1"/>
    </vehicle>
    <vehicle id="36" depart="27.00">
        <route edges="E1 E4"/>
    </vehicle>
    <vehicle id="38" depart="29.00">
        <route edges="-E4 E3"/>
    </vehicle>
    <vehicle id="39" depart="29.00">
        <route edges="E1 -E5"/>
    </vehicle>
    <vehicle id="40" depart="29.00">
        <route edges="E5 E4"/>
    </vehicle>
    <vehicle id="41" depart="30.00">
        <route edges="-E4 E3"/>
    </vehicle>
    <vehicle id="43" depart="30.00">
        <route edges="E1 E3"/>
    </vehicle>
    <vehicle id="45" depart="32.00">
        <route edges="E5 E4"/>
    </vehicle>
    <vehicle id="46" depart="33.00">
        <route edges="E5 -E1"/>
    </vehicle>
    <vehicle id="47" depart="33.00">
        <route edges="E5 E4"/>
    </vehicle>
    <vehicle id="49" depart="34.00">
        <route edges="-E3 E4"/>
    </vehicle>
    <vehicle id="50" depart="35.00">
        <route edges="E5 -E1"/>
    </vehicle>
    <vehicle id="52" depart="36.00">
        <route edges="-E3 -E1"/>
    </vehicle>
    <vehicle id="53" depart="37.00">
        <route edges="E1 E3"/>
    </vehicle>
    <vehicle id="54" depart="37.00">
        <route edges="-E3 -E1"/>
    </vehicle>
    <vehicle id="56" depart="40.00">
        <route edges="-E4 E3"/>
    </vehicle>
    <vehicle id="57" depart="41.00">
        <route edges="E5 E3"/>
    </vehicle>
    <vehicle id="60" depart="42.00">
        <route edges="-E4 -E5"/>
    </vehicle>
    <vehicle id="62" depart="42.00">
        <route edges="-E4 -E1"/>
    </vehicle>
    <vehicle id="63" depart="43.00">
        <route edges="-E3 -E1"/>
    </vehicle>
    <vehicle id="64" depart="44.00">
        <route edges="-E3 -E5"/>
    </vehicle>
    <vehicle id="67" depart="45.00">
        <route edges="E1 -E5"/>
    </vehicle>
    <vehicle id="68" depart="47.00">
        <route edges="-E4 E3"/>
    </vehicle>
    <vehicle id="69" depart="48.00">
        <route edges="-E3 E4"/>
    </vehicle>
    <vehicle id="70" depart="48.00">
        <route edges="E1 E4"/>
    </vehicle>
    <vehicle id="71" depart="48.00">
        <route edges="-E3 -E1"/>
    </vehicle>
    <vehicle id="72" depart="49.00">
        <route edges="-E3 -E1"/>
    </vehicle>
    <vehicle id="73" depart="50.00">
        <route edges="-E4 -E1"/>
    </vehicle>
    <vehicle id="74" depart="52.00">
        <route edges="-E4 -E1"/>
    </vehicle>
    <vehicle id="76" depart="52.00">
        <route edges="-E3 E4"/>
    </vehicle>
    <vehicle id="77" depart="53.00">
        <route edges="-E3 -E5"/>
    </vehicle>
    <vehicle id="78" depart="54.00">
        <route edges="-E4 E3"/>
    </vehicle>
    <vehicle id="80" depart="55.00">
        <route edges="E5 -E1"/>
    </vehicle>
    <vehicle id="81" depart="55.00">
        <route edges="E5 E4"/>
    </vehicle>
    <vehicle id="82" depart="56.00">
        <route edges="E1 -E5"/>
    </vehicle>
    <vehicle id="86" depart="58.00">
        <route edges="-E3 -E5"/>
    </vehicle>
    <vehicle id="87" depart="59.00">
        <route edges="E1 E4"/>
    </vehicle>
    <vehicle id="88" depart="59.00">
        <route edges="E5 -E1"/>
    </vehicle>
    <vehicle id="89" depart="60.00">
        <route edges="-E4 -E1"/>
    </vehicle>
    <vehicle id="90" depart="60.00">
        <route edges="-E4 -E5"/>
    </vehicle>
    <vehicle id="91" depart="62.00">
        <route edges="E1 E3"/>
    </vehicle>
    <vehicle id="93" depart="64.00">
        <route edges="-E4 -E1"/>
    </vehicle>
    <vehicle id="94" depart="65.00">
        <route edges="E1 E4"/>
    </vehicle>
    <vehicle id="95" depart="65.00">
        <route edges="E5 E3"/>
    </vehicle>
    <vehicle id="96" depart="66.00">
        <route edges="-E3 E4"/>
    </vehicle>
    <vehicle id="97" depart="67.00">
        <route edges="-E4 -E5"/>
    </vehicle>
    <vehicle id="101" depart="69.00">
        <route edges="E1 E3"/>
    </vehicle>
    <vehicle id="104" depart="73.00">
        <route edges="E1 -E5"/>
    </vehicle>
    <vehicle id="105" depart="74.00">
        <route edges="E1 E3"/>
    </vehicle>
    <vehicle id="107" depart="75.00">
        <route edges="-E4 -E5"/>
    </vehicle>
    <vehicle id="108" depart="75.00">
        <route edges="E1 -E5"/>
    </vehicle>
    <vehicle id="109" depart="76.00">
        <route edges="E5 E4"/>
    </vehicle>
    <vehicle id="110" depart="77.00">
        <route edges="E1 -E5"/>
    </vehicle>
    <vehicle id="111" depart="77.00">
        <route edges="-E4 E3"/>
    </vehicle>
    <vehicle id="112" depart="78.00">
        <route edges="-E3 -E1"/>
    </vehicle>
    <vehicle id="113" depart="78.00">
        <route edges="-E4 E3"/>
    </vehicle>
    <vehicle id="114" depart="79.00">
        <route edges="E1 -E5"/>
    </vehicle>
    <vehicle id="116" depart="80.00">
        <route edges="E5 E3"/>
    </vehicle>
    <vehicle id="117" depart="81.00">
        <route edges="-E3 E4"/>
    </vehicle>
    <vehicle id="118" depart="82.00">
        <route edges="E1 E3"/>
    </vehicle>
    <vehicle id="120" depart="82.00">
        <route edges="-E4 -E1"/>
    </vehicle>
    <vehicle id="121" depart="82.00">
        <route edges="E5 E3"/>
    </vehicle>
    <vehicle id="123" depart="83.00">
        <route edges="E5 E4"/>
    </vehicle>
    <vehicle id="124" depart="84.00">
        <route edges="-E4 -E1"/>
    </vehicle>
    <vehicle id="125" depart="84.00">
        <route edges="E5 E4"/>
    </vehicle>
    <vehicle id="126" depart="85.00">
        <route edges="-E3 E4"/>
    </vehicle>
    <vehicle id="127" depart="87.00">
        <route edges="-E3 -E1"/>
    </vehicle>
    <vehicle id="128" depart="88.00">
        <route edges="-E4 -E5"/>
    </vehicle>
    <vehicle id="129" depart="88.00">
        <route edges="-E4 -E1"/>
    </vehicle>
    <vehicle id="131" depart="89.00">
        <route edges="E1 E4"/>
    </vehicle>
    <vehicle id="132" depart="89.00">
        <route edges="-E4 -E1"/>
    </vehicle>
    <vehicle id="133" depart="91.00">
        <route edges="-E4 E3"/>
    </vehicle>
    <vehicle id="134" depart="91.00">
        <route edges="E5 E3"/>
    </vehicle>
    <vehicle id="136" depart="92.00">
        <route edges="E1 E4"/>
    </vehicle>
    <vehicle id="137" depart="93.00">
        <route edges="-E3 -E1"/>
    </vehicle>
    <vehicle id="139" depart="95.00">
        <route edges="-E4 E3"/>
    </vehicle>
    <vehicle id="140" depart="96.00">
        <route edges="E5 E3"/>
    </vehicle>
    <vehicle id="142" depart="99.00">
        <route edges="E1 E4"/>
    </vehicle>
    <vehicle id="145" depart="101.00">
        <route edges="E1 -E5"/>
    </vehicle>
    <vehicle id="146" depart="101.00">
        <route edges="-E4 -E1"/>
    </vehicle>
    <vehicle id="147" depart="102.00">
        <route edges="-E4 E3"/>
    </vehicle>
    <vehicle id="150" depart="103.00">
        <route edges="-E3 -E5"/>
    </vehicle>
    <vehicle id="151" depart="103.00">
        <route edges="E1 E3"/>
    </vehicle>
    <vehicle id="152" depart="104.00">
        <route edges="E5 E4"/>
    </vehicle>
    <vehicle id="154" depart="104.00">
        <route edges="-E4 E3"/>
    </vehicle>
    <vehicle id="156" depart="105.00">
        <route edges="-E3 -E5"/>
    </vehicle>
    <vehicle id="157" depart="106.00">
        <route edges="-E4 -E5"/>
    </vehicle>
    <vehicle id="158" depart="106.00">
        <route edges="-E3 -E1"/>
    </vehicle>
    <vehicle id="159" depart="106.00">
        <route edges="E5 -E1"/>
    </vehicle>
    <vehicle id="161" depart="107.00">
        <route edges="-E3 -E5"/>
    </vehicle>
    <vehicle id="163" depart="109.00">
        <route edges="-E4 E3"/>
    </vehicle>
    <vehicle id="164" depart="110.00">
        <route edges="E1 -E5"/>
    </vehicle>
    <vehicle id="165" depart="110.00">
        <route edges="E1 -E5"/>
    </vehicle>
    <vehicle id="166" depart="111.00">
        <route edges="-E4 -E1"/>
    </vehicle>
    <vehicle id="167" depart="111.00">
        <route edges="E1 -E5"/>
    </vehicle>
    <vehicle id="168" depart="112.00">
        <route edges="-E3 -E1"/>
    </vehicle>
    <vehicle id="169" depart="112.00">
        <route edges="E1 E3"/>
    </vehicle>
    <vehicle id="170" depart="113.00">
        <route edges="-E4 -E5"/>
    </vehicle>
    <vehicle id="171" depart="113.00">
        <route edges="E5 -E1"/>
    </vehicle>
    <vehicle id="172" depart="114.00">
        <route edges="-E3 -E1"/>
    </vehicle>
    <vehicle id="173" depart="118.00">
        <route edges="-E4 E3"/>
    </vehicle>
    <vehicle id="174" depart="119.00">
        <route edges="E1 E4"/>
    </vehicle>
    <vehicle id="176" depart="120.00">
        <route edges="E1 E4"/>
    </vehicle>
    <vehicle id="178" depart="121.00">
        <route edges="E5 -E1"/>
    </vehicle>
    <vehicle id="179" depart="123.00">
        <route edges="E1 E3"/>
    </vehicle>
    <vehicle id="180" depart="124.00">
        <route edges="-E3 E4"/>
    </vehicle>
    <vehicle id="181" depart="125.00">
        <route edges="-E4 E3"/>
    </vehicle>
    <vehicle id="182" depart="126.00">
        <route edges="-E3 -E1"/>
    </vehicle>
    <vehicle id="185" depart="129.00">
        <route edges="-E4 -E5"/>
    </vehicle>
    <vehicle id="186" depart="129.00">
        <route edges="E1 E3"/>
    </vehicle>
    <vehicle id="187" depart="130.00">
        <route edges="E5 E3"/>
    </vehicle>
    <vehicle id="189" depart="131.00">
        <route edges="E1 E3"/>
    </vehicle>
    <vehicle id="191" depart="132.00">
        <route edges="E1 -E5"/>
    </vehicle>
    <vehicle id="192" depart="132.00">
        <route edges="E5 E3"/>
    </vehicle>
    <vehicle id="193" depart="133.00">
        <route edges="-E4 -E5"/>
    </vehicle>
    <vehicle id="194" depart="134.00">
        <route edges="E5 E4"/>
    </vehicle>
    <vehicle id="195" depart="135.00">
        <route edges="-E4 -E1"/>
    </vehicle>
    <vehicle id="197" depart="136.00">
        <route edges="-E3 E4"/>
    </vehicle>
    <vehicle id="199" depart="136.00">
        <route edges="E1 E3"/>
    </vehicle>
    <vehicle id="200" depart="137.00">
        <route edges="-E3 -E5"/>
    </vehicle>
    <vehicle id="201" depart="138.00">
        <route edges="E5 E3"/>
    </vehicle>
    <vehicle id="202" depart="138.00">
        <route edges="-E4 -E1"/>
    </vehicle>
    <vehicle id="203" depart="139.00">
        <route edges="-E3 -E1"/>
    </vehicle>
    <vehicle id="204" depart="139.00">
        <route edges="-E3 -E5"/>
    </vehicle>
    <vehicle id="205" depart="139.00">
        <route edges="E5 E3"/>
    </vehicle>
    <vehicle id="207" depart="142.00">
        <route edges="E1 -E5"/>
    </vehicle>
    <vehicle id="210" depart="143.00">
        <route edges="E1 -E5"/>
    </vehicle>
    <vehicle id="211" depart="144.00">
        <route edges="E5 -E1"/>
    </vehicle>
    <vehicle id="213" depart="145.00">
        <route edges="E5 E4"/>
    </vehicle>
    <vehicle id="216" depart="145.00">
        <route edges="-E3 E4"/>
    </vehicle>
    <vehicle id="217" depart="146.00">
        <route edges="E5 E4"/>
    </vehicle>
    <vehicle id="218" depart="146.00">
        <route edges="-E4 E3"/>
    </vehicle>
    <vehicle id="219" depart="146.00">
        <route edges="E5 -E1"/>
    </vehicle>
    <vehicle id="220" depart="146.00">
        <route edges="E5 E4"/>
    </vehicle>
    <vehicle id="221" depart="147.00">
        <route edges="-E4 -E1"/>
    </vehicle>
    <vehicle id="222" depart="147.00">
        <route edges="-E3 -E5"/>
    </vehicle>
    <vehicle id="223" depart="148.00">
        <route edges="E5 E4"/>
    </vehicle>
    <vehicle id="224" depart="148.00">
        <route edges="E5 -E1"/>
    </vehicle>
    <vehicle id="225" depart="149.00">
        <route edges="E5 E4"/>
    </vehicle>
    <vehicle id="227" depart="150.00">
        <route edges="-E4 -E5"/>
    </vehicle>
    <vehicle id="228" depart="151.00">
        <route edges="E1 -E5"/>
    </vehicle>
    <vehicle id="232" depart="154.00">
        <route edges="-E4 -E5"/>
    </vehicle>
    <vehicle id="233" depart="154.00">
        <route edges="E5 -E1"/>
    </vehicle>
    <vehicle id="234" depart="155.00">
        <route edges="E1 E3"/>
    </vehicle>
    <vehicle id="235" depart="155.00">
        <route edges="-E3 -E1"/>
    </vehicle>
    <vehicle id="236" depart="156.00">
        <route edges="E5 E4"/>
    </vehicle>
    <vehicle id="237" depart="156.00">
        <route edges="-E4 E3"/>
    </vehicle>
    <vehicle id="238" depart="158.00">
        <route edges="E5 E4"/>
    </vehicle>
    <vehicle id="240" depart="159.00">
        <route edges="E1 -E5"/>
    </vehicle>
    <vehicle id="241" depart="160.00">
        <route edges="E1 E4"/>
    </vehicle>
    <vehicle id="242" depart="160.00">
        <route edges="-E4 E3"/>
    </vehicle>
    <vehicle id="243" depart="162.00">
        <route edges="-E3 E4"/>
    </vehicle>
    <vehicle id="244" depart="162.00">
        <route edges="-E3 E4"/>
    </vehicle>
    <vehicle id="245" depart="163.00">
        <route edges="-E4 -E1"/>
    </vehicle>
    <vehicle id="248" depart="164.00">
        <route edges="E5 E4"/>
    </vehicle>
    <vehicle id="249" depart="165.00">
        <route edges="E5 -E1"/>
    </vehicle>
    <vehicle id="250" depart="167.00">
        <route edges="E5 -E1"/>
    </vehicle>
    <vehicle id="251" depart="167.00">
        <route edges="E1 E4"/>
    </vehicle>
    <vehicle id="252" depart="168.00">
        <route edges="E1 E3"/>
    </vehicle>
    <vehicle id="253" depart="169.00">
        <route edges="E5 E4"/>
    </vehicle>
    <vehicle id="254" depart="170.00">
        <route edges="E1 E4"/>
    </vehicle>
    <vehicle id="255" depart="171.00">
        <route edges="-E3 -E1"/>
    </vehicle>
    <vehicle id="256" depart="172.00">
        <route edges="-E3 -E1"/>
    </vehicle>
    <vehicle id="257" depart="172.00">
        <route edges="E5 -E1"/>
    </vehicle>
    <vehicle id="258" depart="172.00">
        <route edges="E5 E4"/>
    </vehicle>
    <vehicle id="260" depart="175.00">
        <route edges="-E3 E4"/>
    </vehicle>
    <vehicle id="261" depart="177.00">
        <route edges="E5 E3"/>
    </vehicle>
    <vehicle id="262" depart="177.00">
        <route edges="E1 -E5"/>
    </vehicle>
    <vehicle id="264" depart="178.00">
        <route edges="E1 -E5"/>
    </vehicle>
    <vehicle id="267" depart="181.00">
        <route edges="E5 -E1"/>
    </vehicle>
    <vehicle id="268" depart="182.00">
        <route edges="E5 E4"/>
    </vehicle>
    <vehicle id="269" depart="184.00">
        <route edges="-E3 E4"/>
    </vehicle>
    <vehicle id="270" depart="184.00">
        <route edges="-E4 E3"/>
    </vehicle>
    <vehicle id="274" depart="187.00">
        <route edges="E5 E3"/>
    </vehicle>
    <vehicle id="275" depart="188.00">
        <route edges="-E3 -E5"/>
    </vehicle>
    <vehicle id="277" depart="188.00">
        <route edges="-E3 -E5"/>
    </vehicle>
    <vehicle id="278" depart="189.00">
        <route edges="E5 -E1"/>
    </vehicle>
    <vehicle id="279" depart="189.00">
        <route edges="-E3 E4"/>
    </vehicle>
    <vehicle id="280" depart="190.00">
        <route edges="E1 E4"/>
    </vehicle>
    <vehicle id="281" depart="190.00">
        <route edges="E1 -E5"/>
    </vehicle>
    <vehicle id="287" depart="196.00">
        <route edges="E1 E4"/>
    </vehicle>
    <vehicle id="288" depart="198.00">
        <route edges="E5 E4"/>
    </vehicle>
    <vehicle id="289" depart="198.00">
        <route edges="-E3 -E1"/>
    </vehicle>
    <vehicle id="290" depart="198.00">
        <route edges="E5 E3"/>
    </vehicle>
    <vehicle id="291" depart="198.00">
        <route edges="-E4 -E5"/>
    </vehicle>
    <vehicle id="292" depart="200.00">
        <route edges="E1 E3"/>
    </vehicle>
    <vehicle id="293" depart="200.00">
        <route edges="-E3 -E5"/>
    </vehicle>
    <vehicle id="294" depart="201.00">
        <route edges="E5 E4"/>
    </vehicle>
    <vehicle id="297" depart="202.00">
        <route edges="E5 E4"/>
    </vehicle>
    <vehicle id="298" depart="202.00">
        <route edges="E5 E4"/>
    </vehicle>
    <vehicle id="299" depart="203.00">
        <route edges="-E3 -E1"/>
    </vehicle>
    <vehicle id="300" depart="204.00">
        <route edges="-E4 E3"/>
    </vehicle>
    <vehicle id="301" depart="204.00">
        <route edges="E5 -E1"/>
    </vehicle>
    <vehicle id="302" depart="204.00">
        <route edges="-E4 E3"/>
    </vehicle>
    <vehicle id="303" depart="205.00">
        <route edges="E1 E3"/>
    </vehicle>
    <vehicle id="304" depart="207.00">
        <route edges="-E3 -E5"/>
    </vehicle>
    <vehicle id="305" depart="208.00">
        <route edges="-E3 -E1"/>
    </vehicle>
    <vehicle id="306" depart="208.00">
        <route edges="E1 E4"/>
    </vehicle>
    <vehicle id="309" depart="211.00">
        <route edges="-E3 E4"/>
    </vehicle>
    <vehicle id="310" depart="212.00">
        <route edges="E5 -E1"/>
    </vehicle>
    <vehicle id="311" depart="213.00">
        <route edges="E1 E4"/>
    </vehicle>
    <vehicle id="314" depart="214.00">
        <route edges="-E4 -E1"/>
    </vehicle>
    <vehicle id="315" depart="216.00">
        <route edges="-E4 E3"/>
    </vehicle>
    <vehicle id="316" depart="217.00">
        <route edges="E1 E4"/>
    </vehicle>
    <vehicle id="317" depart="218.00">
        <route edges="-E3 E4"/>
    </vehicle>
    <vehicle id="318" depart="219.00">
        <route edges="-E4 E3"/>
    </vehicle>
    <vehicle id="319" depart="220.00">
        <route edges="-E4 -E5"/>
    </vehicle>
    <vehicle id="320" depart="221.00">
        <route edges="-E3 E4"/>
    </vehicle>
    <vehicle id="321" depart="221.00">
        <route edges="E5 E4"/>
    </vehicle>
    <vehicle id="323" depart="221.00">
        <route edges="E5 -E1"/>
    </vehicle>
    <vehicle id="324" depart="222.00">
        <route edges="E1 E3"/>
    </vehicle>
    <vehicle id="325" depart="223.00">
        <route edges="E5 E3"/>
    </vehicle>
    <vehicle id="326" depart="223.00">
        <route edges="E5 E3"/>
    </vehicle>
    <vehicle id="327" depart="224.00">
        <route edges="-E3 E4"/>
    </vehicle>
    <vehicle id="328" depart="224.00">
        <route edges="-E4 E3"/>
    </vehicle>
    <vehicle id="330" depart="225.00">
        <route edges="E5 E3"/>
    </vehicle>
    <vehicle id="331" depart="226.00">
        <route edges="-E4 -E5"/>
    </vehicle>
    <vehicle id="333" depart="226.00">
        <route edges="-E3 E4"/>
    </vehicle>
    <vehicle id="334" depart="227.00">
        <route edges="E1 -E5"/>
    </vehicle>
    <vehicle id="335" depart="227.00">
        <route edges="-E4 -E5"/>
    </vehicle>
    <vehicle id="336" depart="227.00">
        <route edges="-E3 -E1"/>
    </vehicle>
    <vehicle id="337" depart="228.00">
        <route edges="-E4 E3"/>
    </vehicle>
    <vehicle id="338" depart="228.00">
        <route edges="E1 -E5"/>
    </vehicle>
    <vehicle id="339" depart="229.00">
        <route edges="E5 E4"/>
    </vehicle>
    <vehicle id="340" depart="229.00">
        <route edges="-E3 E4"/>
    </vehicle>
    <vehicle id="344" depart="231.00">
        <route edges="-E4 -E1"/>
    </vehicle>
    <vehicle id="345" depart="231.00">
        <route edges="-E4 -E5"/>
    </vehicle>
    <vehicle id="347" depart="233.00">
        <route edges="E1 E4"/>
    </vehicle>
    <vehicle id="348" depart="234.00">
        <route edges="-E3 E4"/>
    </vehicle>
    <vehicle id="350" depart="235.00">
        <route edges="-E3 -E5"/>
    </vehicle>
    <vehicle id="351" depart="236.00">
        <route edges="-E4 -E1"/>
    </vehicle>
    <vehicle id="352" depart="236.00">
        <route edges="E1 E3"/>
    </vehicle>
    <vehicle id="353" depart="237.00">
        <route edges="-E3 -E1"/>
    </vehicle>
    <vehicle id="354" depart="241.00">
        <route edges="E5 -E1"/>
    </vehicle>
    <vehicle id="355" depart="242.00">
        <route edges="-E4 -E5"/>
    </vehicle>
    <vehicle id="356" depart="242.00">
        <route edges="-E3 E4"/>
    </vehicle>
    <vehicle id="358" depart="245.00">
        <route edges="-E4 E3"/>
    </vehicle>
    <vehicle id="359" depart="245.00">
        <route edges="-E4 E3"/>
    </vehicle>
    <vehicle id="360" depart="246.00">
        <route edges="-E4 E3"/>
    </vehicle>
    <vehicle id="361" depart="246.00">
        <route edges="E5 E3"/>
    </vehicle>
    <vehicle id="362" depart="247.00">
        <route edges="E5 -E1"/>
    </vehicle>
    <vehicle id="363" depart="248.00">
        <route edges="-E4 -E1"/>
    </vehicle>
    <vehicle id="364" depart="248.00">
        <route edges="E5 E4"/>
    </vehicle>
    <vehicle id="365" depart="250.00">
        <route edges="-E3 -E5"/>
    </vehicle>
    <vehicle id="366" depart="250.00">
        <route edges="E5 E4"/>
    </vehicle>
    <vehicle id="367" depart="251.00">
        <route edges="-E3 -E5"/>
    </vehicle>
    <vehicle id="368" depart="251.00">
        <route edges="E1 E4"/>
    </vehicle>
    <vehicle id="369" depart="251.00">
        <route edges="-E4 E3"/>
    </vehicle>
    <vehicle id="371" depart="253.00">
        <route edges="E1 E4"/>
    </vehicle>
    <vehicle id="372" depart="253.00">
        <route edges="-E3 E4"/>
    </vehicle>
    <vehicle id="373" depart="254.00">
        <route edges="-E4 -E5"/>
    </vehicle>
    <vehicle id="374" depart="256.00">
        <route edges="E5 E3"/>
    </vehicle>
    <vehicle id="375" depart="259.00">
        <route edges="E5 -E1"/>
    </vehicle>
    <vehicle id="378" depart="260.00">
        <route edges="E1 E3"/>
    </vehicle>
    <vehicle id="382" depart="263.00">
        <route edges="E1 -E5"/>
    </vehicle>
    <vehicle id="383" depart="264.00">
        <route edges="-E3 -E1"/>
    </vehicle>
    <vehicle id="384" depart="265.00">
        <route edges="E1 E3"/>
    </vehicle>
    <vehicle id="386" depart="266.00">
        <route edges="-E3 -E1"/>
    </vehicle>
    <vehicle id="387" depart="267.00">
        <route edges="E5 E3"/>
    </vehicle>
    <vehicle id="390" depart="268.00">
        <route edges="E5 E3"/>
    </vehicle>
    <vehicle id="391" depart="268.00">
        <route edges="E5 E4"/>
    </vehicle>
    <vehicle id="392" depart="269.00">
        <route edges="-E4 -E5"/>
    </vehicle>
    <vehicle id="393" depart="269.00">
        <route edges="-E3 -E5"/>
    </vehicle>
    <vehicle id="394" depart="270.00">
        <route edges="E1 E3"/>
    </vehicle>
    <vehicle id="396" depart="271.00">
        <route edges="-E3 -E5"/>
    </vehicle>
    <vehicle id="398" depart="273.00">
        <route edges="E5 E3"/>
    </vehicle>
    <vehicle id="399" depart="274.00">
        <route edges="E5 -E1"/>
    </vehicle>
    <vehicle id="400" depart="274.00">
        <route edges="-E3 E4"/>
    </vehicle>
    <vehicle id="401" depart="277.00">
        <route edges="E1 E3"/>
    </vehicle>
    <vehicle id="402" depart="277.00">
        <route edges="-E3 -E5"/>
    </vehicle>
    <vehicle id="403" depart="278.00">
        <route edges="-E4 -E5"/>
    </vehicle>
    <vehicle id="404" depart="278.00">
        <route edges="E5 -E1"/>
    </vehicle>
    <vehicle id="406" depart="280.00">
        <route edges="-E3 E4"/>
    </vehicle>
    <vehicle id="407" depart="280.00">
        <route edges="-E4 -E5"/>
    </vehicle>
    <vehicle id="408" depart="281.00">
        <route edges="-E3 -E1"/>
    </vehicle>
    <vehicle id="410" depart="284.00">
        <route edges="E5 E4"/>
    </vehicle>
    <vehicle id="411" depart="284.00">
        <route edges="-E4 -E1"/>
    </vehicle>
    <vehicle id="412" depart="285.00">
        <route edges="E1 E3"/>
    </vehicle>
    <vehicle id="413" depart="286.00">
        <route edges="-E3 -E1"/>
    </vehicle>
    <vehicle id="414" depart="286.00">
        <route edges="-E4 E3"/>
    </vehicle>
    <vehicle id="415" depart="288.00">
        <route edges="-E3 E4"/>
    </vehicle>
    <vehicle id="416" depart="288.00">
        <route edges="-E3 -E5"/>
    </vehicle>
    <vehicle id="417" depart="288.00">
        <route edges="-E4 E3"/>
    </vehicle>
    <vehicle id="418" depart="289.00">
        <route edges="-E3 -E1"/>
    </vehicle>
    <vehicle id="419" depart="289.00">
        <route edges="-E4 -E5"/>
    </vehicle>
    <vehicle id="420" depart="290.00">
        <route edges="-E3 E4"/>
    </vehicle>
    <vehicle id="421" depart="290.00">
        <route edges="-E3 -E5"/>
    </vehicle>
    <vehicle id="422" depart="291.00">
        <route edges="-E4 E3"/>
    </vehicle>
    <vehicle id="423" depart="291.00">
        <route edges="-E3 -E1"/>
    </vehicle>
    <vehicle id="427" depart="295.00">
        <route edges="E5 E3"/>
    </vehicle>
    <vehicle id="428" depart="296.00">
        <route edges="-E3 -E5"/>
    </vehicle>
    <vehicle id="429" depart="297.00">
        <route edges="-E4 E3"/>
    </vehicle>
    <vehicle id="430" depart="297.00">
        <route edges="E1 E3"/>
    </vehicle>
    <vehicle id="432" depart="299.00">
        <route edges="-E4 -E1"/>
    </vehicle>
    <vehicle id="433" depart="301.00">
        <route edges="-E4 -E5"/>
    </vehicle>
    <vehicle id="435" depart="302.00">
        <route edges="-E4 E3"/>
    </vehicle>
    <vehicle id="436" depart="303.00">
        <route edges="-E4 E3"/>
    </vehicle>
    <vehicle id="437" depart="304.00">
        <route edges="-E4 -E1"/>
    </vehicle>
    <vehicle id="438" depart="304.00">
        <route edges="E1 -E5"/>
    </vehicle>
    <vehicle id="439" depart="305.00">
        <route edges="E5 -E1"/>
    </vehicle>
    <vehicle id="440" depart="306.00">
        <route edges="-E4 -E5"/>
    </vehicle>
    <vehicle id="442" depart="307.00">
        <route edges="E5 E3"/>
    </vehicle>
    <vehicle id="443" depart="308.00">
        <route edges="-E4 -E1"/>