<?xml version="1.0" encoding="UTF-8"?>

<!-- generated on 2024-05-28 20:33:18.515481 by randomTrips.py v1_14_1+0000-f654d7b963e
<configuration>
    <end value="3600"/>
    <lanes value="True"/>
    <min-distance value="50.0"/>
    <net-file value="osm.net.xml"/>
    <period value="6.0"/>
    <route-file value="osm.passenger.rou.xml"/>
    <output-trip-file value="osm.passenger.trips.xml"/>
    <prefix value="veh"/>
    <validate value="True"/>
    <vehicle-class value="passenger"/>
</configuration>
-->

<!-- generated on 2024-05-28 20:33:18 by Eclipse SUMO duarouter Version 1.14.1
<configuration xmlns:xsi="http://www.w3.org/2001/XMLSchema-instance" xsi:noNamespaceSchemaLocation="http://sumo.dlr.de/xsd/duarouterConfiguration.xsd">

    <input>
        <net-file value="osm.net.xml"/>
        <route-files value="osm.passenger.trips.xml"/>
    </input>

    <output>
        <output-file value="osm.passenger.trips.xml.tmp"/>
        <alternatives-output value="NUL"/>
        <write-trips value="true"/>
    </output>

    <time>
        <begin value="0"/>
        <end value="3600"/>
    </time>

    <report>
        <no-warnings value="true"/>
        <ignore-errors value="true"/>
        <no-step-log value="true"/>
    </report>

</configuration>
-->

<routes xmlns:xsi="http://www.w3.org/2001/XMLSchema-instance" xsi:noNamespaceSchemaLocation="http://sumo.dlr.de/xsd/routes_file.xsd">
    <vType id="veh_passenger" vClass="passenger"/>
    <trip id="veh0" type="veh_passenger" depart="0.00" from="-E4" to="-E1"/>
    <trip id="veh1" type="veh_passenger" depart="6.00" from="E1" to="E3"/>
    <trip id="veh2" type="veh_passenger" depart="12.00" from="E5" to="-E1"/>
    <trip id="veh3" type="veh_passenger" depart="18.00" from="-E4" to="-E1"/>
    <trip id="veh4" type="veh_passenger" depart="24.00" from="-E3" to="-E1"/>
    <trip id="veh5" type="veh_passenger" depart="30.00" from="E1" to="E3"/>
    <trip id="veh6" type="veh_passenger" depart="36.00" from="E5" to="-E1"/>
    <trip id="veh7" type="veh_passenger" depart="42.00" from="E5" to="E3"/>
    <trip id="veh8" type="veh_passenger" depart="48.00" from="-E4" to="-E1"/>
    <trip id="veh9" type="veh_passenger" depart="54.00" from="-E3" to="-E1"/>
    <trip id="veh10" type="veh_passenger" depart="60.00" from="E5" to="E3"/>
    <trip id="veh11" type="veh_passenger" depart="66.00" from="E5" to="E3"/>
    <trip id="veh12" type="veh_passenger" depart="72.00" from="E1" to="E4"/>
    <trip id="veh13" type="veh_passenger" depart="78.00" from="-E4" to="E3"/>
    <trip id="veh14" type="veh_passenger" depart="84.00" from="E5" to="E3"/>
    <trip id="veh15" type="veh_passenger" depart="90.00" from="E5" to="E3"/>
    <trip id="veh16" type="veh_passenger" depart="96.00" from="-E3" to="-E5"/>
    <trip id="veh17" type="veh_passenger" depart="102.00" from="-E3" to="-E1"/>
    <trip id="veh18" type="veh_passenger" depart="108.00" from="-E3" to="-E5"/>
    <trip id="veh19" type="veh_passenger" depart="114.00" from="E1" to="-E5"/>
    <trip id="veh20" type="veh_passenger" depart="120.00" from="-E4" to="-E1"/>
    <trip id="veh21" type="veh_passenger" depart="126.00" from="E1" to="E3"/>
    <trip id="veh22" type="veh_passenger" depart="132.00" from="-E3" to="-E5"/>
    <trip id="veh23" type="veh_passenger" depart="138.00" from="E5" to="E3"/>
    <trip id="veh24" type="veh_passenger" depart="144.00" from="E1" to="E3"/>
    <trip id="veh25" type="veh_passenger" depart="150.00" from="E5" to="E4"/>
    <trip id="veh26" type="veh_passenger" depart="156.00" from="-E3" to="-E1"/>
    <trip id="veh27" type="veh_passenger" depart="162.00" from="-E4" to="-E5"/>
    <trip id="veh28" type="veh_passenger" depart="168.00" from="-E3" to="E4"/>
    <trip id="veh29" type="veh_passenger" depart="174.00" from="E1" to="-E5"/>
    <trip id="veh30" type="veh_passenger" depart="180.00" from="-E4" to="-E1"/>
    <trip id="veh31" type="veh_passenger" depart="186.00" from="E1" to="-E5"/>
    <trip id="veh32" type="veh_passenger" depart="192.00" from="E1" to="E4"/>
    <trip id="veh33" type="veh_passenger" depart="198.00" from="-E4" to="-E1"/>
    <trip id="veh34" type="veh_passenger" depart="204.00" from="E5" to="E3"/>
    <trip id="veh35" type="veh_passenger" depart="210.00" from="-E3" to="-E1"/>
    <trip id="veh36" type="veh_passenger" depart="216.00" from="-E3" to="-E5"/>
    <trip id="veh37" type="veh_passenger" depart="222.00" from="E5" to="E3"/>
    <trip id="veh38" type="veh_passenger" depart="228.00" from="E5" to="E4"/>
    <trip id="veh39" type="veh_passenger" depart="234.00" from="E1" to="E3"/>
    <trip id="veh40" type="veh_passenger" depart="240.00" from="-E4" to="E3"/>
    <trip id="veh41" type="veh_passenger" depart="246.00" from="-E3" to="-E5"/>
    <trip id="veh42" type="veh_passenger" depart="252.00" from="E5" to="E4"/>
    <trip id="veh43" type="veh_passenger" depart="258.00" from="-E4" to="E3"/>
    <trip id="veh44" type="veh_passenger" depart="264.00" from="E5" to="E3"/>
    <trip id="veh45" type="veh_passenger" depart="270.00" from="E5" to="E3"/>
    <trip id="veh46" type="veh_passenger" depart="276.00" from="-E3" to="-E5"/>
    <trip id="veh47" type="veh_passenger" depart="282.00" from="-E3" to="E4"/>
    <trip id="veh48" type="veh_passenger" depart="288.00" from="E5" to="E4"/>
    <trip id="veh49" type="veh_passenger" depart="294.00" from="-E4" to="-E1"/>
    <trip id="veh50" type="veh_passenger" depart="300.00" from="E5" to="E4"/>
    <trip id="veh51" type="veh_passenger" depart="306.00" from="-E3" to="-E5"/>
    <trip id="veh52" type="veh_passenger" depart="312.00" from="-E3" to="E4"/>
    <trip id="veh53" type="veh_passenger" depart="318.00" from="E5" to="-E1"/>
    <trip id="veh54" type="veh_passenger" depart="324.00" from="-E4" to="E3"/>
    <trip id="veh55" type="veh_passenger" depart="330.00" from="-E4" to="-E1"/>
    <trip id="veh56" type="veh_passenger" depart="336.00" from="E1" to="E3"/>
    <trip id="veh57" type="veh_passenger" depart="342.00" from="-E3" to="-E5"/>
    <trip id="veh58" type="veh_passenger" depart="348.00" from="E5" to="E3"/>
    <trip id="veh59" type="veh_passenger" depart="354.00" from="-E4" to="E3"/>
    <trip id="veh60" type="veh_passenger" depart="360.00" from="-E3" to="-E1"/>
    <trip id="veh61" type="veh_passenger" depart="366.00" from="-E4" to="E3"/>
    <trip id="veh62" type="veh_passenger" depart="372.00" from="-E3" to="-E1"/>
    <trip id="veh63" type="veh_passenger" depart="378.00" from="-E3" to="E4"/>
    <trip id="veh64" type="veh_passenger" depart="384.00" from="E5" to="-E1"/>
    <trip id="veh65" type="veh_passenger" depart="390.00" from="-E3" to="-E1"/>
    <trip id="veh66" type="veh_passenger" depart="396.00" from="E5" to="E3"/>
    <trip id="veh67" type="veh_passenger" depart="402.00" from="E5" to="-E1"/>
    <trip id="veh68" type="veh_passenger" depart="408.00" from="-E3" to="-E5"/>
    <trip id="veh69" type="veh_passenger" depart="414.00" from="-E4" to="-E5"/>
    <trip id="veh70" type="veh_passenger" depart="420.00" from="E1" to="E3"/>
    <trip id="veh71" type="veh_passenger" depart="426.00" from="E5" to="-E1"/>
    <trip id="veh72" type="veh_passenger" depart="432.00" from="-E4" to="-E5"/>
    <trip id="veh73" type="veh_passenger" depart="438.00" from="E5" to="-E1"/>
    <trip id="veh74" type="veh_passenger" depart="444.00" from="-E3" to="-E5"/>
    <trip id="veh75" type="veh_passenger" depart="450.00" from="-E4" to="-E5"/>
    <trip id="veh76" type="veh_passenger" depart="456.00" from="-E3" to="E4"/>
    <trip id="veh77" type="veh_passenger" depart="462.00" from="E5" to="E4"/>
    <trip id="veh78" type="veh_passenger" depart="468.00" from="E5" to="E4"/>
    <trip id="veh79" type="veh_passenger" depart="474.00" from="E5" to="-E1"/>
    <trip id="veh80" type="veh_passenger" depart="480.00" from="-E4" to="-E1"/>
    <trip id="veh81" type="veh_passenger" depart="486.00" from="-E4" to="-E1"/>
    <trip id="veh82" type="veh_passenger" depart="492.00" from="-E4" to="-E5"/>
    <trip id="veh83" type="veh_passenger" depart="498.00" from="E5" to="E4"/>
    <trip id="veh84" type="veh_passenger" depart="504.00" from="E1" to="E3"/>
    <trip id="veh85" type="veh_passenger" depart="510.00" from="-E3" to="-E5"/>
    <trip id="veh86" type="veh_passenger" depart="516.00" from="E5" to="E3"/>
    <trip id="veh87" type="veh_passenger" depart="522.00" from="E1" to="E3"/>
    <trip id="veh88" type="veh_passenger" depart="528.00" from="E1" to="E4"/>
    <trip id="veh89" type="veh_passenger" depart="534.00" from="-E3" to="E4"/>
    <trip id="veh90" type="veh_passenger" depart="540.00" from="-E3" to="-E1"/>
    <trip id="veh91" type="veh_passenger" depart="546.00" from="E1" to="E3"/>
    <trip id="veh92" type="veh_passenger" depart="552.00" from="-E3" to="-E1"/>
    <trip id="veh93" type="veh_passenger" depart="558.00" from="E5" to="-E1"/>
    <trip id="veh94" type="veh_passenger" depart="564.00" from="E1" to="E3"/>
    <trip id="veh95" type="veh_passenger" depart="570.00" from="-E4" to="E3"/>
    <trip id="veh96" type="veh_passenger" depart="576.00" from="E1" to="E4"/>
    <trip id="veh97" type="veh_passenger" depart="582.00" from="-E3" to="-E5"/>
    <trip id="veh98" type="veh_passenger" depart="588.00" from="E1" to="-E5"/>
    <trip id="veh99" type="veh_passenger" depart="594.00" from="-E3" to="-E5"/>
    <trip id="veh100" type="veh_passenger" depart="600.00" from="E5" to="E4"/>
    <trip id="veh101" type="veh_passenger" depart="606.00" from="-E3" to="-E1"/>
    <trip id="veh102" type="veh_passenger" depart="612.00" from="E5" to="E4"/>
    <trip id="veh103" type="veh_passenger" depart="618.00" from="-E4" to="-E1"/>
    <trip id="veh104" type="veh_passenger" depart="624.00" from="E5" to="E3"/>
    <trip id="veh105" type="veh_passenger" depart="630.00" from="E1" to="E4"/>
    <trip id="veh106" type="veh_passenger" depart="636.00" from="E1" to="E4"/>
    <trip id="veh107" type="veh_passenger" depart="642.00" from="-E3" to="-E1"/>
    <trip id="veh108" type="veh_passenger" depart="648.00" from="-E4" to="E3"/>
    <trip id="veh109" type="veh_passenger" depart="654.00" from="E1" to="-E5"/>
    <trip id="veh110" type="veh_passenger" depart="660.00" from="E5" to="-E1"/>
    <trip id="veh111" type="veh_passenger" depart="666.00" from="-E4" to="-E5"/>
    <trip id="veh112" type="veh_passenger" depart="672.00" from="-E3" to="E4"/>
    <trip id="veh113" type="veh_passenger" depart="678.00" from="E1" to="-E5"/>
    <trip id="veh114" type="veh_passenger" depart="684.00" from="E1" to="E3"/>
    <trip id="veh115" type="veh_passenger" depart="690.00" from="-E4" to="-E1"/>
    <trip id="veh116" type="veh_passenger" depart="696.00" from="-E3" to="E4"/>
    <trip id="veh117" type="veh_passenger" depart="702.00" from="E5" to="E3"/>
    <trip id="veh118" type="veh_passenger" depart="708.00" from="E5" to="E3"/>
    <trip id="veh119" type="veh_passenger" depart="714.00" from="-E3" to="-E1"/>
    <trip id="veh120" type="veh_passenger" depart="720.00" from="E5" to="E4"/>
    <trip id="veh121" type="veh_passenger" depart="726.00" from="E5" to="-E1"/>
    <trip id="veh122" type="veh_passenger" depart="732.00" from="-E3" to="-E1"/>
    <trip id="veh123" type="veh_passenger" depart="738.00" from="E5" to="E4"/>
    <trip id="veh124" type="veh_passenger" depart="744.00" from="-E4" to="E3"/>
    <trip id="veh125" type="veh_passenger" depart="750.00" from="-E3" to="E4"/>
    <trip id="veh126" type="veh_passenger" depart="756.00" from="E5" to="E4"/>
    <trip id="veh127" type="veh_passenger" depart="762.00" from="E5" to="E4"/>
    <trip id="veh128" type="veh_passenger" depart="768.00" from="E5" to="E4"/>
    <trip id="veh129" type="veh_passenger" depart="774.00" from="E5" to="-E1"/>
    <trip id="veh130" type="veh_passenger" depart="780.00" from="E5" to="E4"/>
    <trip id="veh131" type="veh_passenger" depart="786.00" from="-E3" to="E4"/>
    <trip id="veh132" type="veh_passenger" depart="792.00" from="-E4" to="-E5"/>
    <trip id="veh133" type="veh_passenger" depart="798.00" from="E5" to="-E1"/>
    <trip id="veh134" type="veh_passenger" depart="804.00" from="-E3" to="-E1"/>
    <trip id="veh135" type="veh_passenger" depart="810.00" from="E1" to="-E5"/>
    <trip id="veh136" type="veh_passenger" depart="816.00" from="E5" to="E3"/>
    <trip id="veh137" type="veh_passenger" depart="822.00" from="E5" to="-E1"/>
    <trip id="veh138" type="veh_passenger" depart="828.00" from="E5" to="-E1"/>
    <trip id="veh139" type="veh_passenger" depart="834.00" from="-E3" to="-E5"/>
    <trip id="veh140" type="veh_passenger" depart="840.00" from="E1" to="-E5"/>
    <trip id="veh141" type="veh_passenger" depart="846.00" from="E1" to="E3"/>
    <trip id="veh142" type="veh_passenger" depart="852.00" from="-E4" to="E3"/>
    <trip id="veh143" type="veh_passenger" depart="858.00" from="-E4" to="E3"/>
    <trip id="veh144" type="veh_passenger" depart="864.00" from="-E3" to="E4"/>
    <trip id="veh145" type="veh_passenger" depart="870.00" from="E1" to="E3"/>
    <trip id="veh146" type="veh_passenger" depart="876.00" from="E1" to="E3"/>
    <trip id="veh147" type="veh_passenger" depart="882.00" from="-E4" to="-E1"/>
    <trip id="veh148" type="veh_passenger" depart="888.00" from="E1" to="-E5"/>
    <trip id="veh149" type="veh_passenger" depart="894.00" from="E1" to="-E5"/>
    <trip id="veh150" type="veh_passenger" depart="900.00" from="-E4" to="-E5"/>
    <trip id="veh151" type="veh_passenger" depart="906.00" from="-E4" to="-E5"/>
    <trip id="veh152" type="veh_passenger" depart="912.00" from="-E3" to="-E5"/>
    <trip id="veh153" type="veh_passenger" depart="918.00" from="E5" to="E3"/>
    <trip id="veh154" type="veh_passenger" depart="924.00" from="E5" to="E3"/>
    <trip id="veh155" type="veh_passenger" depart="930.00" from="-E4" to="E3"/>
    <trip id="veh156" type="veh_passenger" depart="936.00" from="-E3" to="-E5"/>
    <trip id="veh157" type="veh_passenger" depart="942.00" from="-E4" to="E3"/>
    <trip id="veh158" type="veh_passenger" depart="948.00" from="E1" to="-E5"/>
    <trip id="veh159" type="veh_passenger" depart="954.00" from="-E4" to="-E1"/>
    <trip id="veh160" type="veh_passenger" depart="960.00" from="E5" to="-E1"/>
    <trip id="veh161" type="veh_passenger" depart="966.00" from="E1" to="-E5"/>
    <trip id="veh162" type="veh_passenger" depart="972.00" from="E5" to="E4"/>
    <trip id="veh163" type="veh_passenger" depart="978.00" from="-E3" to="-E1"/>
    <trip id="veh164" type="veh_passenger" depart="984.00" from="-E3" to="-E5"/>
    <trip id="veh165" type="veh_passenger" depart="990.00" from="E5" to="-E1"/>
    <trip id="veh166" type="veh_passenger" depart="996.00" from="-E4" to="E3"/>
    <trip id="veh167" type="veh_passenger" depart="1002.00" from="-E4" to="-E1"/>
    <trip id="veh168" type="veh_passenger" depart="1008.00" from="E5" to="E4"/>
    <trip id="veh169" type="veh_passenger" depart="1014.00" from="-E3" to="-E5"/>
    <trip id="veh170" type="veh_passenger" depart="1020.00" from="-E3" to="E4"/>
    <trip id="veh171" type="veh_passenger" depart="1026.00" from="-E3" to="E4"/>
    <trip id="veh172" type="veh_passenger" depart="1032.00" from="E1" to="E4"/>
    <trip id="veh173" type="veh_passenger" depart="1038.00" from="E1" to="E4"/>
    <trip id="veh174" type="veh_passenger" depart="1044.00" from="E5" to="E3"/>
    <trip id="veh175" type="veh_passenger" depart="1050.00" from="E1" to="E3"/>
    <trip id="veh176" type="veh_passenger" depart="1056.00" from="E5" to="E3"/>
    <trip id="veh177" type="veh_passenger" depart="1062.00" from="E5" to="E3"/>
    <trip id="veh178" type="veh_passenger" depart="1068.00" from="-E4" to="-E5"/>
    <trip id="veh179" type="veh_passenger" depart="1074.00" from="E5" to="E3"/>
    <trip id="veh180" type="veh_passenger" depart="1080.00" from="E1" to="-E5"/>
    <trip id="veh181" type="veh_passenger" depart="1086.00" from="-E3" to="-E5"/>
    <trip id="veh182" type="veh_passenger" depart="1092.00" from="-E4" to="-E5"/>
    <trip id="veh183" type="veh_passenger" depart="1098.00" from="-E4" to="E3"/>
    <trip id="veh184" type="veh_passenger" depart="1104.00" from="-E4" to="-E1"/>
    <trip id="veh185" type="veh_passenger" depart="1110.00" from="E1" to="E3"/>
    <trip id="veh186" type="veh_passenger" depart="1116.00" from="E5" to="E4"/>
    <trip id="veh187" type="veh_passenger" depart="1122.00" from="-E4" to="-E1"/>
    <trip id="veh188" type="veh_passenger" depart="1128.00" from="E5" to="E4"/>
    <trip id="veh189" type="veh_passenger" depart="1134.00" from="-E4" to="E3"/>
    <trip id="veh190" type="veh_passenger" depart="1140.00" from="E1" to="E3"/>
    <trip id="veh191" type="veh_passenger" depart="1146.00" from="-E3" to="-E1"/>
    <trip id="veh192" type="veh_passenger" depart="1152.00" from="-E4" to="-E1"/>
    <trip id="veh193" type="veh_passenger" depart="1158.00" from="-E4" to="E3"/>
    <trip id="veh194" type="veh_passenger" depart="1164.00" from="-E4" to="-E1"/>
    <trip id="veh195" type="veh_passenger" depart="1170.00" from="-E4" to="-E1"/>
    <trip id="veh196" type="veh_passenger" depart="1176.00" from="-E4" to="E3"/>
    <trip id="veh197" type="veh_passenger" depart="1182.00" from="-E3" to="-E5"/>
    <trip id="veh198" type="veh_passenger" depart="1188.00" from="-E3" to="-E5"/>
    <trip id="veh199" type="veh_passenger" depart="1194.00" from="-E3" to="-E5"/>
    <trip id="veh200" type="veh_passenger" depart="1200.00" from="E5" to="E4"/>
    <trip id="veh201" type="veh_passenger" depart="1206.00" from="-E4" to="-E1"/>
    <trip id="veh202" type="veh_passenger" depart="1212.00" from="E1" to="E4"/>
    <trip id="veh203" type="veh_passenger" depart="1218.00" from="E1" to="E4"/>
    <trip id="veh204" type="veh_passenger" depart="1224.00" from="E5" to="-E1"/>
    <trip id="veh205" type="veh_passenger" depart="1230.00" from="-E3" to="-E1"/>
    <trip id="veh206" type="veh_passenger" depart="1236.00" from="E1" to="E4"/>
    <trip id="veh207" type="veh_passenger" depart="1242.00" from="E5" to="E4"/>
    <trip id="veh208" type="veh_passenger" depart="1248.00" from="-E3" to="-E1"/>
    <trip id="veh209" type="veh_passenger" depart="1254.00" from="-E4" to="E3"/>
    <trip id="veh210" type="veh_passenger" depart="1260.00" from="E1" to="E3"/>
    <trip id="veh211" type="veh_passenger" depart="1266.00" from="-E3" to="E4"/>
    <trip id="veh212" type="veh_passenger" depart="1272.00" from="E5" to="E3"/>
    <trip id="veh213" type="veh_passenger" depart="1278.00" from="-E3" to="E4"/>
    <trip id="veh214" type="veh_passenger" depart="1284.00" from="-E4" to="-E5"/>
    <trip id="veh215" type="veh_passenger" depart="1290.00" from="E1" to="-E5"/>
    <trip id="veh216" type="veh_passenger" depart="1296.00" from="E5" to="E4"/>
    <trip id="veh217" type="veh_passenger" depart="1302.00" from="-E3" to="E4"/>
    <trip id="veh218" type="veh_passenger" depart="1308.00" from="E1" to="E4"/>
    <trip id="veh219" type="veh_passenger" depart="1314.00" from="E1" to="-E5"/>
    <trip id="veh220" type="veh_passenger" depart="1320.00" from="E1" to="E4"/>
    <trip id="veh221" type="veh_passenger" depart="1326.00" from="E1" to="-E5"/>
    <trip id="veh222" type="veh_passenger" depart="1332.00" from="-E4" to="E3"/>
    <trip id="veh223" type="veh_passenger" depart="1338.00" from="E5" to="-E1"/>
    <trip id="veh224" type="veh_passenger" depart="1344.00" from="E5" to="-E1"/>
    <trip id="veh225" type="veh_passenger" depart="1350.00" from="-E4" to="E3"/>
    <trip id="veh226" type="veh_passenger" depart="1356.00" from="-E4" to="-E1"/>
    <trip id="veh227" type="veh_passenger" depart="1362.00" from="E5" to="-E1"/>
    <trip id="veh228" type="veh_passenger" depart="1368.00" from="-E3" to="E4"/>
    <trip id="veh229" type="veh_passenger" depart="1374.00" from="E1" to="-E5"/>
    <trip id="veh230" type="veh_passenger" depart="1380.00" from="-E3" to="E4"/>
    <trip id="veh231" type="veh_passenger" depart="1386.00" from="E1" to="E3"/>
    <trip id="veh232" type="veh_passenger" depart="1392.00" from="-E3" to="-E1"/>
    <trip id="veh233" type="veh_passenger" depart="1398.00" from="E1" to="-E5"/>
    <trip id="veh234" type="veh_passenger" depart="1404.00" from="E1" to="-E5"/>
    <trip id="veh235" type="veh_passenger" depart="1410.00" from="E1" to="-E5"/>
    <trip id="veh236" type="veh_passenger" depart="1416.00" from="E1" to="-E5"/>
    <trip id="veh237" type="veh_passenger" depart="1422.00" from="E1" to="-E5"/>
    <trip id="veh238" type="veh_passenger" depart="1428.00" from="-E4" to="-E1"/>
    <trip id="veh239" type="veh_passenger" depart="1434.00" from="-E3" to="-E1"/>
    <trip id="veh240" type="veh_passenger" depart="1440.00" from="E1" to="E4"/>
    <trip id="veh241" type="veh_passenger" depart="1446.00" from="-E3" to="-E1"/>
    <trip id="veh242" type="veh_passenger" depart="1452.00" from="-E4" to="E3"/>
    <trip id="veh243" type="veh_passenger" depart="1458.00" from="E5" to="E3"/>
    <trip id="veh244" type="veh_passenger" depart="1464.00" from="-E4" to="-E1"/>
    <trip id="veh245" type="veh_passenger" depart="1470.00" from="-E3" to="-E1"/>
    <trip id="veh246" type="veh_passenger" depart="1476.00" from="-E3" to="-E1"/>
    <trip id="veh247" type="veh_passenger" depart="1482.00" from="E1" to="-E5"/>
    <trip id="veh248" type="veh_passenger" depart="1488.00" from="E5" to="E3"/>
    <trip id="veh249" type="veh_passenger" depart="1494.00" from="E5" to="E3"/>
    <trip id="veh250" type="veh_passenger" depart="1500.00" from="-E4" to="-E5"/>
    <trip id="veh251" type="veh_passenger" depart="1506.00" from="-E3" to="-E1"/>
    <trip id="veh252" type="veh_passenger" depart="1512.00" from="-E3" to="-E1"/>
    <trip id="veh253" type="veh_passenger" depart="1518.00" from="E1" to="-E5"/>
    <trip id="veh254" type="veh_passenger" depart="1524.00" from="E5" to="-E1"/>
    <trip id="veh255" type="veh_passenger" depart="1530.00" from="E5" to="E3"/>
    <trip id="veh256" type="veh_passenger" depart="1536.00" from="E5" to="-E1"/>
    <trip id="veh257" type="veh_passenger" depart="1542.00" from="E1" to="-E5"/>
    <trip id="veh258" type="veh_passenger" depart="1548.00" from="E1" to="E3"/>
    <trip id="veh259" type="veh_passenger" depart="1554.00" from="E1" to="E4"/>
    <trip id="veh260" type="veh_passenger" depart="1560.00" from="-E3" to="-E1"/>
    <trip id="veh261" type="veh_passenger" depart="1566.00" from="-E3" to="-E1"/>
    <trip id="veh262" type="veh_passenger" depart="1572.00" from="-E3" to="-E5"/>
    <trip id="veh263" type="veh_passenger" depart="1578.00" from="E1" to="-E5"/>
    <trip id="veh264" type="veh_passenger" depart="1584.00" from="E1" to="-E5"/>
    <trip id="veh265" type="veh_passenger" depart="1590.00" from="E1" to="E4"/>
    <trip id="veh266" type="veh_passenger" depart="1596.00" from="E5" to="E3"/>
    <trip id="veh267" type="veh_passenger" depart="1602.00" from="E1" to="E4"/>
    <trip id="veh268" type="veh_passenger" depart="1608.00" from="-E4" to="E3"/>
    <trip id="veh269" type="veh_passenger" depart="1614.00" from="E1" to="E4"/>
    <trip id="veh270" type="veh_passenger" depart="1620.00" from="E5" to="-E1"/>
    <trip id="veh271" type="veh_passenger" depart="1626.00" from="-E3" to="-E5"/>
    <trip id="veh272" type="veh_passenger" depart="1632.00" from="E1" to="E3"/>
    <trip id="veh273" type="veh_passenger" depart="1638.00" from="-E4" to="-E1"/>
    <trip id="veh274" type="veh_passenger" depart="1644.00" from="E1" to="E3"/>
    <trip id="veh275" type="veh_passenger" depart="1650.00" from="E5" to="E3"/>
    <trip id="veh276" type="veh_passenger" depart="1656.00" from="-E4" to="-E1"/>
    <trip id="veh277" type="veh_passenger" depart="1662.00" from="-E3" to="-E5"/>
    <trip id="veh278" type="veh_passenger" depart="1668.00" from="-E4" to="-E5"/>
    <trip id="veh279" type="veh_passenger" depart="1674.00" from="-E3" to="E4"/>
    <trip id="veh280" type="veh_passenger" depart="1680.00" from="E5" to="E3"/>
    <trip id="veh281" type="veh_passenger" depart="1686.00" from="E5" to="E4"/>
    <trip id="veh282" type="veh_passenger" depart="1692.00" from="E1" to="-E5"/>
    <trip id="veh283" type="veh_passenger" depart="1698.00" from="-E3" to="E4"/>
    <trip id="veh284" type="veh_passenger" depart="1704.00" from="-E4" to="E3"/>
    <trip id="veh285" type="veh_passenger" depart="1710.00" from="E5" to="-E1"/>
    <trip id="veh286" type="veh_passenger" depart="1716.00" from="E1" to="E3"/>
    <trip id="veh287" type="veh_passenger" depart="1722.00" from="-E4" to="-E1"/>
    <trip id="veh288" type="veh_passenger" depart="1728.00" from="-E4" to="-E5"/>
    <trip id="veh289" type="veh_passenger" depart="1734.00" from="E1" to="E4"/>
    <trip id="veh290" type="veh_passenger" depart="1740.00" from="-E4" to="E3"/>
    <trip id="veh291" type="veh_passenger" depart="1746.00" from="E5" to="E3"/>
    <trip id="veh292" type="veh_passenger" depart="1752.00" from="-E4" to="-E5"/>
    <trip id="veh293" type="veh_passenger" depart="1758.00" from="-E4" to="E3"/>
    <trip id="veh294" type="veh_passenger" depart="1764.00" from="E5" to="E3"/>
    <trip id="veh295" type="veh_passenger" depart="1770.00" from="E1" to="-E5"/>
    <trip id="veh296" type="veh_passenger" depart="1776.00" from="-E3" to="-E5"/>
    <trip id="veh297" type="veh_passenger" depart="1782.00" from="E5" to="E3"/>
    <trip id="veh298" type="veh_passenger" depart="1788.00" from="E5" to="-E1"/>
    <trip id="veh299" type="veh_passenger" depart="1794.00" from="E1" to="E4"/>
    <trip id="veh300" type="veh_passenger" depart="1800.00" from="-E4" to="E3"/>
    <trip id="veh301" type="veh_passenger" depart="1806.00" from="-E3" to="E4"/>
    <trip id="veh302" type="veh_passenger" depart="1812.00" from="E5" to="E4"/>
    <trip id="veh303" type="veh_passenger" depart="1818.00" from="-E4" to="-E1"/>
    <trip id="veh304" type="veh_passenger" depart="1824.00" from="E1" to="E3"/>
    <trip id="veh305" type="veh_passenger" depart="1830.00" from="E5" to="-E1"/>
    <trip id="veh306" type="veh_passenger" depart="1836.00" from="E1" to="-E5"/>
    <trip id="veh307" type="veh_passenger" depart="1842.00" from="E5" to="E3"/>
    <trip id="veh308" type="veh_passenger" depart="1848.00" from="E5" to="E4"/>
    <trip id="veh309" type="veh_passenger" depart="1854.00" from="E1" to="E4"/>
    <trip id="veh310" type="veh_passenger" depart="1860.00" from="-E4" to="-E5"/>
    <trip id="veh311" type="veh_passenger" depart="1866.00" from="E1" to="E4"/>
    <trip id="veh312" type="veh_passenger" depart="1872.00" from="-E4" to="-E1"/>
    <trip id="veh313" type="veh_passenger" depart="1878.00" from="E1" to="-E5"/>
    <trip id="veh314" type="veh_passenger" depart="1884.00" from="E1" to="E3"/>
    <trip id="veh315" type="veh_passenger" depart="1890.00" from="-E4" to="-E5"/>
    <trip id="veh316" type="veh_passenger" depart="1896.00" from="E5" to="-E1"/>
    <trip id="veh317" type="veh_passenger" depart="1902.00" from="E1" to="E3"/>
    <trip id="veh318" type="veh_passenger" depart="1908.00" from="E1" to="E4"/>
    <trip id="veh319" type="veh_passenger" depart="1914.00" from="E1" to="E4"/>
    <trip id="veh320" type="veh_passenger" depart="1920.00" from="E1" to="-E5"/>
    <trip id="veh321" type="veh_passenger" depart="1926.00" from="E1" to="-E5"/>
    <trip id="veh322" type="veh_passenger" depart="1932.00" from="-E4" to="E3"/>
    <trip id="veh323" type="veh_passenger" depart="1938.00" from="E1" to="E4"/>
    <trip id="veh324" type="veh_passenger" depart="1944.00" from="E5" to="E4"/>
    <trip id="veh325" type="veh_passenger" depart="1950.00" from="-E4" to="-E5"/>
    <trip id="veh326" type="veh_passenger" depart="1956.00" from="E1" to="E4"/>
    <trip id="veh327" type="veh_passenger" depart="1962.00" from="E5" to="-E1"/>
    <trip id="veh328" type="veh_passenger" depart="1968.00" from="E5" to="E4"/>
    <trip id="veh329" type="veh_passenger" depart="1974.00" from="E1" to="-E5"/>
    <trip id="veh330" type="veh_passenger" depart="1980.00" from="E1" to="E4"/>
    <trip id="veh331" type="veh_passenger" depart="1986.00" from="-E3" to="E4"/>
    <trip id="veh332" type="veh_passenger" depart="1992.00" from="-E4" to="-E5"/>
    <trip id="veh333" type="veh_passenger" depart="1998.00" from="E1" to="E4"/>
    <trip id="veh334" type="veh_passenger" depart="2004.00" from="-E3" to="-E1"/>
    <trip id="veh335" type="veh_passenger" depart="2010.00" from="E5" to="E3"/>
    <trip id="veh336" type="veh_passenger" depart="2016.00" from="-E3" to="E4"/>
    <trip id="veh337" type="veh_passenger" depart="2022.00" from="-E3" to="-E5"/>
    <trip id="veh338" type="veh_passenger" depart="2028.00" from="-E4" to="-E5"/>
    <trip id="veh339" type="veh_passenger" depart="2034.00" from="-E3" to="E4"/>
    <trip id="veh340" type="veh_passenger" depart="2040.00" from="E5" to="E3"/>
    <trip id="veh341" type="veh_passenger" depart="2046.00" from="-E3" to="-E5"/>
    <trip id="veh342" type="veh_passenger" depart="2052.00" from="-E4" to="E3"/>
    <trip id="veh343" type="veh_passenger" depart="2058.00" from="E1" to="-E5"/>
    <trip id="veh344" type="veh_passenger" depart="2064.00" from="-E3" to="-E5"/>
    <trip id="veh345" type="veh_passenger" depart="2070.00" from="-E4" to="-E1"/>
    <trip id="veh346" type="veh_passenger" depart="2076.00" from="E1" to="E3"/>
    <trip id="veh347" type="veh_passenger" depart="2082.00" from="E5" to="E3"/>
    <trip id="veh348" type="veh_passenger" depart="2088.00" from="-E4" to="E3"/>
    <trip id="veh349" type="veh_passenger" depart="2094.00" from="E1" to="E3"/>
    <trip id="veh350" type="veh_passenger" depart="2100.00" from="E1" to="-E5"/>