<?xml version="1.0" encoding="UTF-8"?>

<!-- generated on 2024-07-31 12:11:20.789088 by randomTrips.py v1_20_0+0002-343658e7c64
<configuration>
    <net-file value="osm.net.xml"/>
    <output-trip-file value="osm.passenger.trips.xml"/>
    <route-file value="osm.passenger.rou.xml"/>
    <lanes value="True"/>
    <seed value="4"/>
    <validate value="True"/>
    <end value="1000.0"/>
    <period value="0.7"/>
    <binomial value="4"/>
</configuration>
-->

<!-- generated on 2024-07-31 12:11:20 by Eclipse SUMO duarouter Version 1.20.0
<configuration xmlns:xsi="http://www.w3.org/2001/XMLSchema-instance" xsi:noNamespaceSchemaLocation="http://sumo.dlr.de/xsd/duarouterConfiguration.xsd">

    <input>
        <net-file value="osm.net.xml"/>
        <route-files value="osm.passenger.trips.xml"/>
    </input>

    <output>
        <output-file value="osm.passenger.rou.xml"/>
        <alternatives-output value="NUL"/>
    </output>

    <time>
        <begin value="0"/>
        <end value="1000.0"/>
    </time>

    <report>
        <no-warnings value="true"/>
        <ignore-errors value="true"/>
        <no-step-log value="true"/>
    </report>

</configuration>
-->

<routes xmlns:xsi="http://www.w3.org/2001/XMLSchema-instance" xsi:noNamespaceSchemaLocation="http://sumo.dlr.de/xsd/routes_file.xsd">
    <vehicle id="0" depart="0.00">
        <route edges="-E3 -E5"/>
    </vehicle>
    <vehicle id="1" depart="0.00">
        <route edges="-E3 -E5"/>
    </vehicle>
    <vehicle id="2" depart="1.00">
        <route edges="E1 -E5"/>
    </vehicle>
    <vehicle id="3" depart="1.00">
        <route edges="-E3 -E1"/>
    </vehicle>
    <vehicle id="4" depart="2.00">
        <route edges="-E4 E3"/>
    </vehicle>
    <vehicle id="5" depart="3.00">
        <route edges="E1 E3"/>
    </vehicle>
    <vehicle id="6" depart="4.00">
        <route edges="-E4 -E1"/>
    </vehicle>
    <vehicle id="7" depart="5.00">
        <route edges="E5 E3"/>
    </vehicle>
    <vehicle id="10" depart="7.00">
        <route edges="E1 -E5"/>
    </vehicle>
    <vehicle id="11" depart="7.00">
        <route edges="E5 -E1"/>
    </vehicle>
    <vehicle id="12" depart="8.00">
        <route edges="E1 -E5"/>
    </vehicle>
    <vehicle id="13" depart="8.00">
        <route edges="E1 -E5"/>
    </vehicle>
    <vehicle id="14" depart="9.00">
        <route edges="-E3 -E1"/>
    </vehicle>
    <vehicle id="15" depart="10.00">
        <route edges="-E4 -E1"/>
    </vehicle>
    <vehicle id="16" depart="10.00">
        <route edges="E1 E4"/>
    </vehicle>
    <vehicle id="18" depart="13.00">
        <route edges="-E3 -E5"/>
    </vehicle>
    <vehicle id="20" depart="13.00">
        <route edges="-E3 -E1"/>
    </vehicle>
    <vehicle id="22" depart="14.00">
        <route edges="-E3 E4"/>
    </vehicle>
    <vehicle id="23" depart="14.00">
        <route edges="-E3 -E1"/>
    </vehicle>
    <vehicle id="25" depart="15.00">
        <route edges="-E4 -E1"/>
    </vehicle>
    <vehicle id="26" depart="15.00">
        <route edges="E1 E4"/>
    </vehicle>
    <vehicle id="27" depart="16.00">
        <route edges="-E4 -E1"/>
    </vehicle>
    <vehicle id="28" depart="17.00">
        <route edges="E5 E4"/>
    </vehicle>
    <vehicle id="29" depart="17.00">
        <route edges="-E4 -E1"/>
    </vehicle>
    <vehicle id="30" depart="17.00">
        <route edges="-E3 E4"/>
    </vehicle>
    <vehicle id="31" depart="18.00">
        <route edges="-E3 E4"/>
    </vehicle>
    <vehicle id="32" depart="20.00">
        <route edges="-E3 E4"/>
    </vehicle>
    <vehicle id="33" depart="21.00">
        <route edges="E1 E4"/>
    </vehicle>
    <vehicle id="34" depart="22.00">
        <route edges="E5 E4"/>
    </vehicle>
    <vehicle id="35" depart="22.00">
        <route edges="E5 E4"/>
    </vehicle>
    <vehicle id="36" depart="23.00">
        <route edges="E5 -E1"/>
    </vehicle>
    <vehicle id="38" depart="25.00">
        <route edges="-E3 E4"/>
    </vehicle>
    <vehicle id="39" depart="25.00">
        <route edges="E5 -E1"/>
    </vehicle>
    <vehicle id="40" depart="26.00">
        <route edges="E1 -E5"/>
    </vehicle>
    <vehicle id="43" depart="29.00">
        <route edges="E5 E4"/>
    </vehicle>
    <vehicle id="44" depart="29.00">
        <route edges="E1 -E5"/>
    </vehicle>
    <vehicle id="45" depart="30.00">
        <route edges="-E3 -E5"/>
    </vehicle>
    <vehicle id="47" depart="32.00">
        <route edges="E5 -E1"/>
    </vehicle>
    <vehicle id="49" depart="33.00">
        <route edges="E5 -E1"/>
    </vehicle>
    <vehicle id="50" depart="33.00">
        <route edges="-E4 -E5"/>
    </vehicle>
    <vehicle id="51" depart="34.00">
        <route edges="-E4 E3"/>
    </vehicle>
    <vehicle id="52" depart="35.00">
        <route edges="-E3 E4"/>
    </vehicle>
    <vehicle id="53" depart="35.00">
        <route edges="E5 E4"/>
    </vehicle>
    <vehicle id="55" depart="37.00">
        <route edges="E5 E4"/>
    </vehicle>
    <vehicle id="57" depart="38.00">
        <route edges="-E3 -E1"/>
    </vehicle>
    <vehicle id="60" depart="40.00">
        <route edges="E1 -E5"/>
    </vehicle>
    <vehicle id="61" depart="40.00">
        <route edges="-E3 -E1"/>
    </vehicle>
    <vehicle id="62" depart="41.00">
        <route edges="E1 -E5"/>
    </vehicle>
    <vehicle id="63" depart="43.00">
        <route edges="E1 E3"/>
    </vehicle>
    <vehicle id="65" depart="45.00">
        <route edges="-E3 -E5"/>
    </vehicle>
    <vehicle id="66" depart="46.00">
        <route edges="-E4 -E1"/>
    </vehicle>
    <vehicle id="67" depart="47.00">
        <route edges="E1 E3"/>
    </vehicle>
    <vehicle id="68" depart="48.00">
        <route edges="-E3 E4"/>
    </vehicle>
    <vehicle id="69" depart="49.00">
        <route edges="-E3 -E5"/>
    </vehicle>
    <vehicle id="70" depart="49.00">
        <route edges="E5 E4"/>
    </vehicle>
    <vehicle id="71" depart="50.00">
        <route edges="-E3 -E5"/>
    </vehicle>
    <vehicle id="72" depart="50.00">
        <route edges="E5 E3"/>
    </vehicle>
    <vehicle id="74" depart="51.00">
        <route edges="-E3 -E5"/>
    </vehicle>
    <vehicle id="75" depart="51.00">
        <route edges="-E3 E4"/>
    </vehicle>
    <vehicle id="76" depart="52.00">
        <route edges="E5 E3"/>
    </vehicle>
    <vehicle id="78" depart="55.00">
        <route edges="-E3 E4"/>
    </vehicle>
    <vehicle id="79" depart="55.00">
        <route edges="-E4 E3"/>
    </vehicle>
    <vehicle id="80" depart="55.00">
        <route edges="-E4 -E5"/>
    </vehicle>
    <vehicle id="81" depart="56.00">
        <route edges="E5 -E1"/>
    </vehicle>
    <vehicle id="82" depart="56.00">
        <route edges="-E3 E4"/>
    </vehicle>
    <vehicle id="83" depart="57.00">
        <route edges="E1 -E5"/>
    </vehicle>
    <vehicle id="84" depart="57.00">
        <route edges="E5 E4"/>
    </vehicle>
    <vehicle id="85" depart="59.00">
        <route edges="E1 E4"/>
    </vehicle>
    <vehicle id="86" depart="59.00">
        <route edges="E1 E4"/>
    </vehicle>
    <vehicle id="87" depart="60.00">
        <route edges="E1 -E5"/>
    </vehicle>
    <vehicle id="88" depart="61.00">
        <route edges="E5 E3"/>
    </vehicle>
    <vehicle id="89" depart="61.00">
        <route edges="E5 E4"/>
    </vehicle>
    <vehicle id="91" depart="64.00">
        <route edges="-E3 -E1"/>
    </vehicle>
    <vehicle id="92" depart="65.00">
        <route edges="E5 E4"/>
    </vehicle>
    <vehicle id="93" depart="65.00">
        <route edges="E5 E3"/>
    </vehicle>
    <vehicle id="96" depart="67.00">
        <route edges="-E4 E3"/>
    </vehicle>
    <vehicle id="98" depart="68.00">
        <route edges="E1 E4"/>
    </vehicle>
    <vehicle id="99" depart="69.00">
        <route edges="-E3 E4"/>
    </vehicle>
    <vehicle id="101" depart="70.00">
        <route edges="E1 -E5"/>
    </vehicle>
    <vehicle id="102" depart="71.00">
        <route edges="-E4 -E5"/>
    </vehicle>
    <vehicle id="103" depart="71.00">
        <route edges="E5 -E1"/>
    </vehicle>
    <vehicle id="104" depart="72.00">
        <route edges="-E3 -E1"/>
    </vehicle>
    <vehicle id="105" depart="73.00">
        <route edges="-E4 -E5"/>
    </vehicle>
    <vehicle id="106" depart="73.00">
        <route edges="-E3 E4"/>
    </vehicle>
    <vehicle id="108" depart="75.00">
        <route edges="E5 -E1"/>
    </vehicle>
    <vehicle id="109" depart="75.00">
        <route edges="E5 -E1"/>
    </vehicle>
    <vehicle id="110" depart="75.00">
        <route edges="-E3 -E5"/>
    </vehicle>
    <vehicle id="111" depart="76.00">
        <route edges="E5 E3"/>
    </vehicle>
    <vehicle id="112" depart="76.00">
        <route edges="-E3 E4"/>
    </vehicle>
    <vehicle id="113" depart="77.00">
        <route edges="E5 E3"/>
    </vehicle>
    <vehicle id="114" depart="78.00">
        <route edges="-E3 -E1"/>
    </vehicle>
    <vehicle id="115" depart="80.00">
        <route edges="-E3 -E1"/>
    </vehicle>
    <vehicle id="117" depart="81.00">
        <route edges="-E4 E3"/>
    </vehicle>
    <vehicle id="119" depart="82.00">
        <route edges="-E3 -E1"/>
    </vehicle>
    <vehicle id="120" depart="83.00">
        <route edges="-E4 E3"/>
    </vehicle>
    <vehicle id="121" depart="83.00">
        <route edges="-E4 -E5"/>
    </vehicle>
    <vehicle id="122" depart="84.00">
        <route edges="-E4 -E1"/>
    </vehicle>
    <vehicle id="123" depart="84.00">
        <route edges="E5 E3"/>
    </vehicle>
    <vehicle id="124" depart="84.00">
        <route edges="-E4 E3"/>
    </vehicle>
    <vehicle id="125" depart="86.00">
        <route edges="E1 E3"/>
    </vehicle>
    <vehicle id="127" depart="87.00">
        <route edges="-E3 -E1"/>
    </vehicle>
    <vehicle id="128" depart="87.00">
        <route edges="-E4 -E5"/>
    </vehicle>
    <vehicle id="129" depart="87.00">
        <route edges="-E4 E3"/>
    </vehicle>
    <vehicle id="130" depart="88.00">
        <route edges="-E4 E3"/>
    </vehicle>
    <vehicle id="131" depart="89.00">
        <route edges="-E4 -E1"/>
    </vehicle>
    <vehicle id="132" depart="90.00">
        <route edges="E1 E3"/>
    </vehicle>
    <vehicle id="133" depart="91.00">
        <route edges="E5 E4"/>
    </vehicle>
    <vehicle id="134" depart="91.00">
        <route edges="E5 E4"/>
    </vehicle>
    <vehicle id="135" depart="92.00">
        <route edges="-E3 -E5"/>
    </vehicle>
    <vehicle id="136" depart="92.00">
        <route edges="-E4 -E5"/>
    </vehicle>
    <vehicle id="137" depart="93.00">
        <route edges="-E4 -E1"/>
    </vehicle>
    <vehicle id="138" depart="94.00">
        <route edges="-E4 -E1"/>
    </vehicle>
    <vehicle id="139" depart="95.00">
        <route edges="E5 E4"/>
    </vehicle>
    <vehicle id="140" depart="95.00">
        <route edges="E5 E4"/>
    </vehicle>
    <vehicle id="141" depart="96.00">
        <route edges="-E3 -E5"/>
    </vehicle>
    <vehicle id="142" depart="97.00">
        <route edges="E1 E3"/>
    </vehicle>
    <vehicle id="143" depart="98.00">
        <route edges="-E4 -E1"/>
    </vehicle>
    <vehicle id="145" depart="98.00">
        <route edges="-E4 E3"/>
    </vehicle>
    <vehicle id="147" depart="99.00">
        <route edges="E5 E3"/>
    </vehicle>
    <vehicle id="150" depart="102.00">
        <route edges="E5 E3"/>
    </vehicle>
    <vehicle id="151" depart="103.00">
        <route edges="-E4 -E5"/>
    </vehicle>
    <vehicle id="152" depart="103.00">
        <route edges="-E4 -E1"/>
    </vehicle>
    <vehicle id="153" depart="104.00">
        <route edges="-E4 E3"/>
    </vehicle>
    <vehicle id="154" depart="104.00">
        <route edges="E5 E4"/>
    </vehicle>
    <vehicle id="155" depart="104.00">
        <route edges="E5 -E1"/>
    </vehicle>
    <vehicle id="156" depart="104.00">
        <route edges="E5 -E1"/>
    </vehicle>
    <vehicle id="157" depart="105.00">
        <route edges="E5 -E1"/>
    </vehicle>
    <vehicle id="158" depart="105.00">
        <route edges="-E3 E4"/>
    </vehicle>
    <vehicle id="159" depart="106.00">
        <route edges="-E4 E3"/>
    </vehicle>
    <vehicle id="160" depart="106.00">
        <route edges="-E3 E4"/>
    </vehicle>
    <vehicle id="161" depart="106.00">
        <route edges="-E3 -E1"/>
    </vehicle>
    <vehicle id="162" depart="108.00">
        <route edges="-E4 E3"/>
    </vehicle>
    <vehicle id="164" depart="110.00">
        <route edges="-E4 -E1"/>
    </vehicle>
    <vehicle id="165" depart="110.00">
        <route edges="-E4 -E1"/>
    </vehicle>
    <vehicle id="166" depart="111.00">
        <route edges="E1 E4"/>
    </vehicle>
    <vehicle id="167" depart="112.00">
        <route edges="E5 E4"/>
    </vehicle>
    <vehicle id="168" depart="115.00">
        <route edges="-E4 -E1"/>
    </vehicle>
    <vehicle id="169" depart="116.00">
        <route edges="-E3 -E5"/>
    </vehicle>
    <vehicle id="170" depart="116.00">
        <route edges="-E4 -E5"/>
    </vehicle>
    <vehicle id="171" depart="117.00">
        <route edges="E5 -E1"/>
    </vehicle>
    <vehicle id="172" depart="118.00">
        <route edges="-E3 -E5"/>
    </vehicle>
    <vehicle id="173" depart="118.00">
        <route edges="E1 E3"/>
    </vehicle>
    <vehicle id="174" depart="120.00">
        <route edges="E1 E4"/>
    </vehicle>
    <vehicle id="176" depart="122.00">
        <route edges="-E3 E4"/>
    </vehicle>
    <vehicle id="177" depart="122.00">
        <route edges="-E3 E4"/>
    </vehicle>
    <vehicle id="178" depart="123.00">
        <route edges="E5 E4"/>
    </vehicle>
    <vehicle id="179" depart="123.00">
        <route edges="-E3 -E1"/>
    </vehicle>
    <vehicle id="180" depart="124.00">
        <route edges="E5 -E1"/>
    </vehicle>
    <vehicle id="181" depart="125.00">
        <route edges="-E3 -E1"/>
    </vehicle>
    <vehicle id="182" depart="125.00">
        <route edges="-E3 -E5"/>
    </vehicle>
    <vehicle id="183" depart="126.00">
        <route edges="E1 E3"/>
    </vehicle>
    <vehicle id="185" depart="127.00">
        <route edges="-E3 E4"/>
    </vehicle>
    <vehicle id="186" depart="127.00">
        <route edges="E1 E4"/>
    </vehicle>
    <vehicle id="187" depart="127.00">
        <route edges="-E3 -E5"/>
    </vehicle>
    <vehicle id="188" depart="128.00">
        <route edges="E5 E3"/>
    </vehicle>
    <vehicle id="189" depart="130.00">
        <route edges="-E3 -E1"/>
    </vehicle>
    <vehicle id="190" depart="132.00">
        <route edges="E1 -E5"/>
    </vehicle>
    <vehicle id="191" depart="132.00">
        <route edges="-E4 E3"/>
    </vehicle>
    <vehicle id="192" depart="133.00">
        <route edges="E5 E4"/>
    </vehicle>
    <vehicle id="193" depart="133.00">
        <route edges="E5 E4"/>
    </vehicle>
    <vehicle id="194" depart="135.00">
        <route edges="E5 E3"/>
    </vehicle>
    <vehicle id="195" depart="135.00">
        <route edges="-E4 -E1"/>
    </vehicle>
    <vehicle id="196" depart="135.00">
        <route edges="E1 -E5"/>
    </vehicle>
    <vehicle id="197" depart="136.00">
        <route edges="E5 E3"/>
    </vehicle>
    <vehicle id="198" depart="136.00">
        <route edges="E5 -E1"/>
    </vehicle>
    <vehicle id="203" depart="139.00">
        <route edges="-E3 -E5"/>
    </vehicle>
    <vehicle id="204" depart="140.00">
        <route edges="E5 E3"/>
    </vehicle>
    <vehicle id="206" depart="143.00">
        <route edges="-E4 E3"/>
    </vehicle>
    <vehicle id="208" depart="144.00">
        <route edges="-E4 E3"/>
    </vehicle>
    <vehicle id="209" depart="145.00">
        <route edges="-E4 E3"/>
    </vehicle>
    <vehicle id="210" depart="145.00">
        <route edges="-E4 -E5"/>
    </vehicle>
    <vehicle id="212" depart="146.00">
        <route edges="E5 -E1"/>
    </vehicle>
    <vehicle id="213" depart="146.00">
        <route edges="E5 E4"/>
    </vehicle>
    <vehicle id="215" depart="147.00">
        <route edges="-E4 E3"/>
    </vehicle>
    <vehicle id="217" depart="150.00">
        <route edges="E5 -E1"/>
    </vehicle>
    <vehicle id="218" depart="151.00">
        <route edges="E1 E4"/>
    </vehicle>
    <vehicle id="219" depart="151.00">
        <route edges="E1 -E5"/>
    </vehicle>
    <vehicle id="220" depart="152.00">
        <route edges="-E4 -E5"/>
    </vehicle>
    <vehicle id="221" depart="152.00">
        <route edges="-E3 -E5"/>
    </vehicle>
    <vehicle id="222" depart="154.00">
        <route edges="E1 E3"/>
    </vehicle>
    <vehicle id="223" depart="155.00">
        <route edges="-E3 -E5"/>
    </vehicle>
    <vehicle id="224" depart="155.00">
        <route edges="-E4 -E1"/>
    </vehicle>
    <vehicle id="228" depart="158.00">
        <route edges="E5 E3"/>
    </vehicle>
    <vehicle id="229" depart="158.00">
        <route edges="-E4 -E5"/>
    </vehicle>
    <vehicle id="230" depart="160.00">
        <route edges="E1 E3"/>
    </vehicle>
    <vehicle id="231" depart="161.00">
        <route edges="-E4 E3"/>
    </vehicle>
    <vehicle id="233" depart="165.00">
        <route edges="E5 -E1"/>
    </vehicle>
    <vehicle id="234" depart="166.00">
        <route edges="-E4 -E1"/>
    </vehicle>
    <vehicle id="236" depart="167.00">
        <route edges="E1 -E5"/>
    </vehicle>
    <vehicle id="237" depart="167.00">
        <route edges="-E4 -E5"/>
    </vehicle>
    <vehicle id="238" depart="169.00">
        <route edges="E1 -E5"/>
    </vehicle>
    <vehicle id="239" depart="170.00">
        <route edges="E1 -E5"/>
    </vehicle>
    <vehicle id="241" depart="172.00">
        <route edges="-E3 -E1"/>
    </vehicle>
    <vehicle id="242" depart="172.00">
        <route edges="E5 -E1"/>
    </vehicle>
    <vehicle id="243" depart="174.00">
        <route edges="E1 -E5"/>
    </vehicle>
    <vehicle id="244" depart="175.00">
        <route edges="-E3 -E1"/>
    </vehicle>
    <vehicle id="245" depart="176.00">
        <route edges="-E3 -E1"/>
    </vehicle>
    <vehicle id="246" depart="176.00">
        <route edges="E1 E4"/>
    </vehicle>
    <vehicle id="247" depart="176.00">
        <route edges="E1 -E5"/>
    </vehicle>
    <vehicle id="248" depart="177.00">
        <route edges="E5 E3"/>
    </vehicle>
    <vehicle id="249" depart="178.00">
        <route edges="-E3 E4"/>
    </vehicle>
    <vehicle id="250" depart="180.00">
        <route edges="E1 E4"/>
    </vehicle>
    <vehicle id="251" depart="181.00">
        <route edges="-E4 E3"/>
    </vehicle>
    <vehicle id="253" depart="184.00">
        <route edges="E5 -E1"/>
    </vehicle>
    <vehicle id="256" depart="186.00">
        <route edges="-E4 -E1"/>
    </vehicle>
    <vehicle id="258" depart="187.00">
        <route edges="E5 -E1"/>
    </vehicle>
    <vehicle id="260" depart="187.00">
        <route edges="E5 E3"/>
    </vehicle>
    <vehicle id="261" depart="188.00">
        <route edges="-E4 -E5"/>
    </vehicle>
    <vehicle id="263" depart="189.00">
        <route edges="-E4 E3"/>
    </vehicle>
    <vehicle id="264" depart="190.00">
        <route edges="-E4 -E1"/>
    </vehicle>
    <vehicle id="265" depart="190.00">
        <route edges="-E4 E3"/>
    </vehicle>
    <vehicle id="266" depart="191.00">
        <route edges="-E4 -E5"/>
    </vehicle>
    <vehicle id="267" depart="192.00">
        <route edges="E5 -E1"/>
    </vehicle>
    <vehicle id="268" depart="192.00">
        <route edges="E1 E3"/>
    </vehicle>
    <vehicle id="269" depart="193.00">
        <route edges="E1 -E5"/>
    </vehicle>
    <vehicle id="270" depart="193.00">
        <route edges="E5 E4"/>
    </vehicle>
    <vehicle id="271" depart="194.00">
        <route edges="-E4 -E1"/>
    </vehicle>
    <vehicle id="273" depart="194.00">
        <route edges="E5 E4"/>
    </vehicle>
    <vehicle id="274" depart="195.00">
        <route edges="E1 E3"/>
    </vehicle>
    <vehicle id="276" depart="196.00">
        <route edges="E5 -E1"/>
    </vehicle>
    <vehicle id="277" depart="197.00">
        <route edges="E5 -E1"/>
    </vehicle>
    <vehicle id="278" depart="197.00">
        <route edges="-E4 E3"/>
    </vehicle>
    <vehicle id="279" depart="197.00">
        <route edges="-E4 -E1"/>
    </vehicle>
    <vehicle id="280" depart="197.00">
        <route edges="E1 E3"/>
    </vehicle>
    <vehicle id="281" depart="198.00">
        <route edges="-E4 E3"/>
    </vehicle>
    <vehicle id="282" depart="199.00">
        <route edges="E5 E3"/>
    </vehicle>
    <vehicle id="283" depart="200.00">
        <route edges="-E4 E3"/>
    </vehicle>
    <vehicle id="284" depart="201.00">
        <route edges="E5 E3"/>
    </vehicle>
    <vehicle id="286" depart="202.00">
        <route edges="-E4 E3"/>
    </vehicle>
    <vehicle id="287" depart="202.00">
        <route edges="-E3 -E1"/>
    </vehicle>
    <vehicle id="288" depart="202.00">
        <route edges="E5 -E1"/>
    </vehicle>
    <vehicle id="290" depart="203.00">
        <route edges="E5 -E1"/>
    </vehicle>
    <vehicle id="291" depart="203.00">
        <route edges="-E3 E4"/>
    </vehicle>
    <vehicle id="293" depart="204.00">
        <route edges="-E3 E4"/>
    </vehicle>
    <vehicle id="294" depart="206.00">
        <route edges="-E3 E4"/>
    </vehicle>
    <vehicle id="295" depart="207.00">
        <route edges="-E3 E4"/>
    </vehicle>
    <vehicle id="296" depart="207.00">
        <route edges="E1 -E5"/>
    </vehicle>
    <vehicle id="297" depart="208.00">
        <route edges="-E3 -E1"/>
    </vehicle>
    <vehicle id="298" depart="208.00">
        <route edges="E1 E3"/>
    </vehicle>
    <vehicle id="301" depart="211.00">
        <route edges="-E4 -E5"/>
    </vehicle>
    <vehicle id="302" depart="212.00">
        <route edges="-E3 -E5"/>
    </vehicle>
    <vehicle id="303" depart="213.00">
        <route edges="-E4 -E5"/>
    </vehicle>
    <vehicle id="304" depart="219.00">
        <route edges="-E4 -E5"/>
    </vehicle>
    <vehicle id="305" depart="222.00">
        <route edges="E1 E4"/>
    </vehicle>
    <vehicle id="306" depart="224.00">
        <route edges="E5 -E1"/>
    </vehicle>
    <vehicle id="307" depart="224.00">
        <route edges="E5 E3"/>
    </vehicle>
    <vehicle id="308" depart="225.00">
        <route edges="E5 E3"/>
    </vehicle>
    <vehicle id="309" depart="225.00">
        <route edges="-E3 -E1"/>
    </vehicle>
    <vehicle id="310" depart="226.00">
        <route edges="E5 -E1"/>
    </vehicle>
    <vehicle id="311" depart="226.00">
        <route edges="-E4 -E1"/>
    </vehicle>
    <vehicle id="312" depart="227.00">
        <route edges="E1 E3"/>
    </vehicle>
    <vehicle id="313" depart="227.00">
        <route edges="E1 E3"/>
    </vehicle>
    <vehicle id="314" depart="227.00">
        <route edges="-E3 E4"/>
    </vehicle>
    <vehicle id="315" depart="228.00">
        <route edges="E1 -E5"/>
    </vehicle>
    <vehicle id="316" depart="230.00">
        <route edges="E5 E3"/>
    </vehicle>
    <vehicle id="317" depart="231.00">
        <route edges="E5 E4"/>
    </vehicle>
    <vehicle id="318" depart="231.00">
        <route edges="E5 -E1"/>
    </vehicle>
    <vehicle id="319" depart="232.00">
        <route edges="-E4 -E1"/>
    </vehicle>
    <vehicle id="321" depart="236.00">
        <route edges="E5 E4"/>
    </vehicle>
    <vehicle id="322" depart="236.00">
        <route edges="E5 -E1"/>
    </vehicle>
    <vehicle id="323" depart="237.00">
        <route edges="E1 -E5"/>
    </vehicle>
    <vehicle id="325" depart="238.00">
        <route edges="-E4 E3"/>
    </vehicle>
    <vehicle id="326" depart="238.00">
        <route edges="-E3 E4"/>
    </vehicle>
    <vehicle id="327" depart="240.00">
        <route edges="-E4 -E5"/>
    </vehicle>
    <vehicle id="330" depart="241.00">
        <route edges="-E3 E4"/>
    </vehicle>
    <vehicle id="331" depart="242.00">
        <route edges="E1 E4"/>
    </vehicle>
    <vehicle id="332" depart="242.00">
        <route edges="-E4 E3"/>
    </vehicle>
    <vehicle id="333" depart="242.00">
        <route edges="E1 E3"/>
    </vehicle>
    <vehicle id="334" depart="244.00">
        <route edges="-E3 -E5"/>
    </vehicle>
    <vehicle id="335" depart="244.00">
        <route edges="E5 E4"/>
    </vehicle>
    <vehicle id="336" depart="246.00">
        <route edges="-E4 -E5"/>
    </vehicle>
    <vehicle id="337" depart="247.00">
        <route edges="E5 -E1"/>
    </vehicle>
    <vehicle id="338" depart="247.00">
        <route edges="E1 E3"/>
    </vehicle>
    <vehicle id="339" depart="248.00">
        <route edges="E1 E3"/>
    </vehicle>
    <vehicle id="341" depart="248.00">
        <route edges="-E3 -E1"/>
    </vehicle>
    <vehicle id="343" depart="250.00">
        <route edges="E5 E3"/>
    </vehicle>
    <vehicle id="344" depart="250.00">
        <route edges="E5 E3"/>
    </vehicle>
    <vehicle id="345" depart="250.00">
        <route edges="-E4 -E5"/>
    </vehicle>
    <vehicle id="347" depart="251.00">
        <route edges="-E4 -E1"/>
    </vehicle>
    <vehicle id="348" depart="253.00">
        <route edges="E1 E3"/>
    </vehicle>
    <vehicle id="349" depart="253.00">
        <route edges="E5 E3"/>
    </vehicle>
    <vehicle id="350" depart="254.00">
        <route edges="E5 E3"/>
    </vehicle>
    <vehicle id="351" depart="255.00">
        <route edges="-E3 E4"/>
    </vehicle>
    <vehicle id="352" depart="257.00">
        <route edges="-E4 -E5"/>
    </vehicle>
    <vehicle id="353" depart="258.00">
        <route edges="-E3 -E1"/>
    </vehicle>
    <vehicle id="354" depart="258.00">
        <route edges="E1 E4"/>
    </vehicle>
    <vehicle id="355" depart="259.00">
        <route edges="-E4 -E1"/>
    </vehicle>
    <vehicle id="357" depart="260.00">
        <route edges="-E3 -E1"/>
    </vehicle>
    <vehicle id="360" depart="260.00">
        <route edges="E5 -E1"/>
    </vehicle>
    <vehicle id="362" depart="261.00">
        <route edges="-E3 E4"/>
    </vehicle>
    <vehicle id="363" depart="262.00">
        <route edges="-E3 -E5"/>
    </vehicle>
    <vehicle id="364" depart="262.00">
        <route edges="E1 E4"/>
    </vehicle>
    <vehicle id="367" depart="264.00">
        <route edges="-E4 -E1"/>
    </vehicle>
    <vehicle id="368" depart="264.00">
        <route edges="-E4 -E5"/>
    </vehicle>
    <vehicle id="369" depart="264.00">
        <route edges="-E3 E4"/>
    </vehicle>
    <vehicle id="370" depart="265.00">
        <route edges="-E4 -E5"/>
    </vehicle>
    <vehicle id="371" depart="267.00">
        <route edges="E1 -E5"/>
    </vehicle>
    <vehicle id="372" depart="267.00">
        <route edges="-E3 -E1"/>
    </vehicle>
    <vehicle id="373" depart="268.00">
        <route edges="E1 E3"/>
    </vehicle>
    <vehicle id="374" depart="268.00">
        <route edges="-E3 E4"/>
    </vehicle>
    <vehicle id="376" depart="269.00">
        <route edges="E5 -E1"/>
    </vehicle>
    <vehicle id="377" depart="270.00">
        <route edges="-E4 -E5"/>
    </vehicle>
    <vehicle id="378" depart="271.00">
        <route edges="E1 E4"/>
    </vehicle>
    <vehicle id="379" depart="271.00">
        <route edges="E5 -E1"/>
    </vehicle>
    <vehicle id="381" depart="273.00">
        <route edges="-E4 E3"/>
    </vehicle>
    <vehicle id="384" depart="275.00">
        <route edges="-E4 -E5"/>
    </vehicle>
    <vehicle id="386" depart="276.00">
        <route edges="E1 -E5"/>
    </vehicle>
    <vehicle id="388" depart="277.00">
        <route edges="E5 E3"/>
    </vehicle>
    <vehicle id="390" depart="278.00">
        <route edges="E1 E3"/>
    </vehicle>
    <vehicle id="392" depart="279.00">
        <route edges="-E4 -E5"/>
    </vehicle>
    <vehicle id="393" depart="280.00">
        <route edges="E1 E4"/>
    </vehicle>
    <vehicle id="394" depart="280.00">
        <route edges="E1 E3"/>
    </vehicle>
    <vehicle id="395" depart="281.00">
        <route edges="E1 E4"/>
    </vehicle>
    <vehicle id="396" depart="282.00">
        <route edges="E5 E4"/>
    </vehicle>
    <vehicle id="397" depart="282.00">
        <route edges="E1 E4"/>
    </vehicle>
    <vehicle id="398" depart="283.00">
        <route edges="E1 E3"/>
    </vehicle>
    <vehicle id="399" depart="283.00">
        <route edges="-E3 -E1"/>
    </vehicle>
    <vehicle id="401" depart="286.00">
        <route edges="E5 -E1"/>
    </vehicle>
    <vehicle id="402" depart="287.00">
        <route edges="-E4 E3"/>
    </vehicle>
    <vehicle id="404" depart="288.00">
        <route edges="E5 E3"/>
    </vehicle>
    <vehicle id="406" depart="288.00">
        <route edges="E5 -E1"/>
    </vehicle>
    <vehicle id="407" depart="289.00">
        <route edges="E5 E3"/>
    </vehicle>
    <vehicle id="408" depart="289.00">
        <route edges="E5 E3"/>
    </vehicle>
    <vehicle id="409" depart="290.00">
        <route edges="E5 E3"/>
    </vehicle>
    <vehicle id="410" depart="290.00">
        <route edges="E5 -E1"/>
    </vehicle>
    <vehicle id="411" depart="291.00">
        <route edges="E1 E4"/>
    </vehicle>
    <vehicle id="412" depart="293.00">
        <route edges="E1 E4"/>
    </vehicle>
    <vehicle id="414" depart="294.00">
        <route edges="-E3 -E5"/>
    </vehicle>
    <vehicle id="416" depart="296.00">
        <route edges="-E4 E3"/>
    </vehicle>
    <vehicle id="418" depart="297.00">
        <route edges="E5 E4"/>
    </vehicle>
    <vehicle id="419" depart="298.00">
        <route edges="-E3 E4"/>
    </vehicle>
    <vehicle id="423" depart="300.00">
        <route edges="E5 -E1"/>
    </vehicle>
    <vehicle id="424" depart="301.00">
        <route edges="E1 E4"/>
    </vehicle>
    <vehicle id="425" depart="302.00">
        <route edges="-E4 -E5"/>
    </vehicle>
    <vehicle id="426" depart="302.00">
        <route edges="-E4 E3"/>
    </vehicle>
    <vehicle id="428" depart="303.00">
        <route edges="E5 E4"/>
    </vehicle>