<?xml version="1.0" encoding="UTF-8"?>

<!-- generated on 2024-07-31 11:45:25.224490 by randomTrips.py v1_20_0+0002-343658e7c64
<configuration>
    <net-file value="osm.net.xml"/>
    <output-trip-file value="osm.passenger.trips.xml"/>
    <route-file value="osm.passenger.rou.xml"/>
    <lanes value="True"/>
    <seed value="0"/>
    <validate value="True"/>
    <end value="1000.0"/>
    <period value="0.7"/>
    <binomial value="4"/>
</configuration>
-->

<!-- generated on 2024-07-31 11:45:25 by Eclipse SUMO duarouter Version 1.20.0
<configuration xmlns:xsi="http://www.w3.org/2001/XMLSchema-instance" xsi:noNamespaceSchemaLocation="http://sumo.dlr.de/xsd/duarouterConfiguration.xsd">

    <input>
        <net-file value="osm.net.xml"/>
        <route-files value="osm.passenger.trips.xml"/>
    </input>

    <output>
        <output-file value="osm.passenger.rou.xml"/>
        <alternatives-output value="NUL"/>
    </output>

    <time>
        <begin value="0"/>
        <end value="1000.0"/>
    </time>

    <report>
        <no-warnings value="true"/>
        <ignore-errors value="true"/>
        <no-step-log value="true"/>
    </report>

</configuration>
-->

<routes xmlns:xsi="http://www.w3.org/2001/XMLSchema-instance" xsi:noNamespaceSchemaLocation="http://sumo.dlr.de/xsd/routes_file.xsd">
    <vehicle id="0" depart="0.00">
        <route edges="E1 -E5"/>
    </vehicle>
    <vehicle id="1" depart="1.00">
        <route edges="-E4 E3"/>
    </vehicle>
    <vehicle id="2" depart="2.00">
        <route edges="E5 E3"/>
    </vehicle>
    <vehicle id="3" depart="2.00">
        <route edges="E5 E4"/>
    </vehicle>
    <vehicle id="4" depart="3.00">
        <route edges="E1 E4"/>
    </vehicle>
    <vehicle id="5" depart="3.00">
        <route edges="-E4 E3"/>
    </vehicle>
    <vehicle id="6" depart="5.00">
        <route edges="E5 E3"/>
    </vehicle>
    <vehicle id="7" depart="5.00">
        <route edges="E1 -E5"/>
    </vehicle>
    <vehicle id="11" depart="7.00">
        <route edges="-E4 E3"/>
    </vehicle>
    <vehicle id="12" depart="8.00">
        <route edges="E1 E3"/>
    </vehicle>
    <vehicle id="13" depart="10.00">
        <route edges="-E3 -E1"/>
    </vehicle>
    <vehicle id="14" depart="11.00">
        <route edges="E5 E4"/>
    </vehicle>
    <vehicle id="15" depart="13.00">
        <route edges="E5 E4"/>
    </vehicle>
    <vehicle id="16" depart="16.00">
        <route edges="E1 -E5"/>
    </vehicle>
    <vehicle id="20" depart="18.00">
        <route edges="E1 E4"/>
    </vehicle>
    <vehicle id="21" depart="18.00">
        <route edges="E1 E3"/>
    </vehicle>
    <vehicle id="22" depart="20.00">
        <route edges="-E3 E4"/>
    </vehicle>
    <vehicle id="23" depart="20.00">
        <route edges="-E3 -E1"/>
    </vehicle>
    <vehicle id="24" depart="21.00">
        <route edges="-E4 -E1"/>
    </vehicle>
    <vehicle id="27" depart="21.00">
        <route edges="-E3 E4"/>
    </vehicle>
    <vehicle id="28" depart="22.00">
        <route edges="-E4 E3"/>
    </vehicle>
    <vehicle id="29" depart="22.00">
        <route edges="E1 E4"/>
    </vehicle>
    <vehicle id="30" depart="23.00">
        <route edges="E1 E4"/>
    </vehicle>
    <vehicle id="31" depart="23.00">
        <route edges="-E4 E3"/>
    </vehicle>
    <vehicle id="32" depart="23.00">
        <route edges="-E4 -E5"/>
    </vehicle>
    <vehicle id="35" depart="25.00">
        <route edges="-E3 -E5"/>
    </vehicle>
    <vehicle id="38" depart="27.00">
        <route edges="-E3 -E5"/>
    </vehicle>
    <vehicle id="39" depart="27.00">
        <route edges="E1 -E5"/>
    </vehicle>
    <vehicle id="40" depart="29.00">
        <route edges="-E4 -E5"/>
    </vehicle>
    <vehicle id="41" depart="30.00">
        <route edges="E1 -E5"/>
    </vehicle>
    <vehicle id="43" depart="32.00">
        <route edges="E5 E3"/>
    </vehicle>
    <vehicle id="44" depart="32.00">
        <route edges="E1 E4"/>
    </vehicle>
    <vehicle id="46" depart="33.00">
        <route edges="E5 E3"/>
    </vehicle>
    <vehicle id="48" depart="34.00">
        <route edges="E5 -E1"/>
    </vehicle>
    <vehicle id="49" depart="34.00">
        <route edges="-E4 -E5"/>
    </vehicle>
    <vehicle id="50" depart="35.00">
        <route edges="E1 E3"/>
    </vehicle>
    <vehicle id="53" depart="37.00">
        <route edges="E1 E3"/>
    </vehicle>
    <vehicle id="58" depart="40.00">
        <route edges="-E4 -E1"/>
    </vehicle>
    <vehicle id="60" depart="41.00">
        <route edges="-E4 -E5"/>
    </vehicle>
    <vehicle id="62" depart="42.00">
        <route edges="-E4 E3"/>
    </vehicle>
    <vehicle id="63" depart="43.00">
        <route edges="E1 E4"/>
    </vehicle>
    <vehicle id="65" depart="44.00">
        <route edges="-E3 -E5"/>
    </vehicle>
    <vehicle id="67" depart="47.00">
        <route edges="E5 E3"/>
    </vehicle>
    <vehicle id="68" depart="48.00">
        <route edges="-E4 -E1"/>
    </vehicle>
    <vehicle id="69" depart="48.00">
        <route edges="E5 -E1"/>
    </vehicle>
    <vehicle id="70" depart="49.00">
        <route edges="-E3 -E5"/>
    </vehicle>
    <vehicle id="71" depart="49.00">
        <route edges="E5 E4"/>
    </vehicle>
    <vehicle id="72" depart="49.00">
        <route edges="-E4 E3"/>
    </vehicle>
    <vehicle id="73" depart="50.00">
        <route edges="-E4 -E5"/>
    </vehicle>
    <vehicle id="75" depart="51.00">
        <route edges="E5 E4"/>
    </vehicle>
    <vehicle id="76" depart="52.00">
        <route edges="-E3 -E5"/>
    </vehicle>
    <vehicle id="77" depart="53.00">
        <route edges="-E3 E4"/>
    </vehicle>
    <vehicle id="78" depart="53.00">
        <route edges="-E3 -E1"/>
    </vehicle>
    <vehicle id="81" depart="57.00">
        <route edges="E1 E3"/>
    </vehicle>
    <vehicle id="83" depart="59.00">
        <route edges="-E3 E4"/>
    </vehicle>
    <vehicle id="86" depart="60.00">
        <route edges="E5 -E1"/>
    </vehicle>
    <vehicle id="87" depart="61.00">
        <route edges="-E4 -E5"/>
    </vehicle>
    <vehicle id="89" depart="62.00">
        <route edges="-E4 -E1"/>
    </vehicle>
    <vehicle id="90" depart="63.00">
        <route edges="E1 E3"/>
    </vehicle>
    <vehicle id="91" depart="63.00">
        <route edges="E1 -E5"/>
    </vehicle>
    <vehicle id="93" depart="66.00">
        <route edges="E5 E4"/>
    </vehicle>
    <vehicle id="95" depart="68.00">
        <route edges="-E3 E4"/>
    </vehicle>
    <vehicle id="96" depart="70.00">
        <route edges="-E3 E4"/>
    </vehicle>
    <vehicle id="97" depart="71.00">
        <route edges="-E3 -E5"/>
    </vehicle>
    <vehicle id="98" depart="72.00">
        <route edges="E5 E3"/>
    </vehicle>
    <vehicle id="99" depart="73.00">
        <route edges="-E4 E3"/>
    </vehicle>
    <vehicle id="100" depart="73.00">
        <route edges="E5 E4"/>
    </vehicle>
    <vehicle id="101" depart="73.00">
        <route edges="-E3 -E5"/>
    </vehicle>
    <vehicle id="102" depart="74.00">
        <route edges="-E4 -E1"/>
    </vehicle>
    <vehicle id="103" depart="74.00">
        <route edges="E5 -E1"/>
    </vehicle>
    <vehicle id="104" depart="75.00">
        <route edges="E1 E4"/>
    </vehicle>
    <vehicle id="105" depart="75.00">
        <route edges="-E3 -E5"/>
    </vehicle>
    <vehicle id="106" depart="75.00">
        <route edges="E1 E4"/>
    </vehicle>
    <vehicle id="107" depart="75.00">
        <route edges="-E3 -E5"/>
    </vehicle>
    <vehicle id="109" depart="76.00">
        <route edges="E5 E4"/>
    </vehicle>
    <vehicle id="110" depart="77.00">
        <route edges="E5 -E1"/>
    </vehicle>
    <vehicle id="111" depart="77.00">
        <route edges="E5 E4"/>
    </vehicle>
    <vehicle id="112" depart="78.00">
        <route edges="-E3 E4"/>
    </vehicle>
    <vehicle id="113" depart="78.00">
        <route edges="-E4 -E1"/>
    </vehicle>
    <vehicle id="114" depart="78.00">
        <route edges="-E3 -E1"/>
    </vehicle>
    <vehicle id="115" depart="79.00">
        <route edges="-E4 E3"/>
    </vehicle>
    <vehicle id="116" depart="79.00">
        <route edges="-E4 E3"/>
    </vehicle>
    <vehicle id="117" depart="79.00">
        <route edges="-E4 -E5"/>
    </vehicle>
    <vehicle id="118" depart="80.00">
        <route edges="-E4 -E5"/>
    </vehicle>
    <vehicle id="119" depart="80.00">
        <route edges="-E3 -E5"/>
    </vehicle>
    <vehicle id="120" depart="81.00">
        <route edges="E1 E3"/>
    </vehicle>
    <vehicle id="122" depart="83.00">
        <route edges="-E4 E3"/>
    </vehicle>
    <vehicle id="125" depart="85.00">
        <route edges="E1 -E5"/>
    </vehicle>
    <vehicle id="127" depart="86.00">
        <route edges="E5 -E1"/>
    </vehicle>
    <vehicle id="128" depart="86.00">
        <route edges="E1 E3"/>
    </vehicle>
    <vehicle id="129" depart="87.00">
        <route edges="-E4 -E5"/>
    </vehicle>
    <vehicle id="132" depart="89.00">
        <route edges="-E4 -E5"/>
    </vehicle>
    <vehicle id="133" depart="91.00">
        <route edges="-E4 E3"/>
    </vehicle>
    <vehicle id="134" depart="91.00">
        <route edges="E1 -E5"/>
    </vehicle>
    <vehicle id="135" depart="92.00">
        <route edges="E1 -E5"/>
    </vehicle>
    <vehicle id="142" depart="97.00">
        <route edges="-E4 -E5"/>
    </vehicle>
    <vehicle id="145" depart="100.00">
        <route edges="-E3 E4"/>
    </vehicle>
    <vehicle id="146" depart="100.00">
        <route edges="-E4 -E1"/>
    </vehicle>
    <vehicle id="147" depart="100.00">
        <route edges="-E3 -E1"/>
    </vehicle>
    <vehicle id="148" depart="101.00">
        <route edges="E1 E3"/>
    </vehicle>
    <vehicle id="150" depart="104.00">
        <route edges="-E4 -E1"/>
    </vehicle>
    <vehicle id="152" depart="105.00">
        <route edges="E5 E3"/>
    </vehicle>
    <vehicle id="153" depart="106.00">
        <route edges="-E3 E4"/>
    </vehicle>
    <vehicle id="154" depart="107.00">
        <route edges="-E4 -E5"/>
    </vehicle>
    <vehicle id="155" depart="107.00">
        <route edges="-E3 -E5"/>
    </vehicle>
    <vehicle id="157" depart="107.00">
        <route edges="E1 E3"/>
    </vehicle>
    <vehicle id="160" depart="108.00">
        <route edges="-E4 E3"/>
    </vehicle>
    <vehicle id="161" depart="109.00">
        <route edges="E5 E4"/>
    </vehicle>
    <vehicle id="162" depart="109.00">
        <route edges="-E3 -E1"/>
    </vehicle>
    <vehicle id="164" depart="111.00">
        <route edges="-E3 -E5"/>
    </vehicle>
    <vehicle id="165" depart="111.00">
        <route edges="E5 E4"/>
    </vehicle>
    <vehicle id="166" depart="111.00">
        <route edges="-E4 E3"/>
    </vehicle>
    <vehicle id="168" depart="112.00">
        <route edges="-E4 E3"/>
    </vehicle>
    <vehicle id="169" depart="112.00">
        <route edges="-E3 -E1"/>
    </vehicle>
    <vehicle id="171" depart="113.00">
        <route edges="E1 E3"/>
    </vehicle>
    <vehicle id="173" depart="116.00">
        <route edges="E5 -E1"/>
    </vehicle>
    <vehicle id="174" depart="116.00">
        <route edges="E1 -E5"/>
    </vehicle>
    <vehicle id="175" depart="117.00">
        <route edges="E5 E3"/>
    </vehicle>
    <vehicle id="178" depart="118.00">
        <route edges="E5 E4"/>
    </vehicle>
    <vehicle id="179" depart="119.00">
        <route edges="E1 E4"/>
    </vehicle>
    <vehicle id="180" depart="119.00">
        <route edges="E1 E3"/>
    </vehicle>
    <vehicle id="181" depart="120.00">
        <route edges="E5 E3"/>
    </vehicle>
    <vehicle id="185" depart="124.00">
        <route edges="-E4 E3"/>
    </vehicle>
    <vehicle id="186" depart="124.00">
        <route edges="E1 -E5"/>
    </vehicle>
    <vehicle id="187" depart="124.00">
        <route edges="E1 E3"/>
    </vehicle>
    <vehicle id="189" depart="125.00">
        <route edges="-E3 -E1"/>
    </vehicle>
    <vehicle id="190" depart="125.00">
        <route edges="-E3 E4"/>
    </vehicle>
    <vehicle id="191" depart="126.00">
        <route edges="-E4 -E5"/>
    </vehicle>
    <vehicle id="193" depart="127.00">
        <route edges="E1 E3"/>
    </vehicle>
    <vehicle id="195" depart="129.00">
        <route edges="-E3 E4"/>
    </vehicle>
    <vehicle id="197" depart="130.00">
        <route edges="-E3 E4"/>
    </vehicle>
    <vehicle id="198" depart="130.00">
        <route edges="E5 E3"/>
    </vehicle>
    <vehicle id="199" depart="130.00">
        <route edges="-E3 E4"/>
    </vehicle>
    <vehicle id="200" depart="131.00">
        <route edges="E1 -E5"/>
    </vehicle>
    <vehicle id="201" depart="132.00">
        <route edges="E5 -E1"/>
    </vehicle>
    <vehicle id="202" depart="132.00">
        <route edges="-E4 -E1"/>
    </vehicle>
    <vehicle id="203" depart="133.00">
        <route edges="-E4 E3"/>
    </vehicle>
    <vehicle id="204" depart="133.00">
        <route edges="-E4 -E5"/>
    </vehicle>
    <vehicle id="205" depart="133.00">
        <route edges="E5 E3"/>
    </vehicle>
    <vehicle id="206" depart="134.00">
        <route edges="E1 -E5"/>
    </vehicle>
    <vehicle id="209" depart="137.00">
        <route edges="E5 E4"/>
    </vehicle>
    <vehicle id="210" depart="137.00">
        <route edges="E1 -E5"/>
    </vehicle>
    <vehicle id="211" depart="139.00">
        <route edges="E5 E4"/>
    </vehicle>
    <vehicle id="213" depart="140.00">
        <route edges="E5 E3"/>
    </vehicle>
    <vehicle id="214" depart="141.00">
        <route edges="-E3 -E1"/>
    </vehicle>
    <vehicle id="215" depart="141.00">
        <route edges="E5 E4"/>
    </vehicle>
    <vehicle id="216" depart="143.00">
        <route edges="E1 -E5"/>
    </vehicle>
    <vehicle id="219" depart="144.00">
        <route edges="-E4 -E5"/>
    </vehicle>
    <vehicle id="220" depart="146.00">
        <route edges="E5 E4"/>
    </vehicle>
    <vehicle id="221" depart="147.00">
        <route edges="E1 E4"/>
    </vehicle>
    <vehicle id="224" depart="151.00">
        <route edges="-E4 E3"/>
    </vehicle>
    <vehicle id="225" depart="153.00">
        <route edges="E5 E4"/>
    </vehicle>
    <vehicle id="226" depart="154.00">
        <route edges="E5 E4"/>
    </vehicle>
    <vehicle id="227" depart="154.00">
        <route edges="-E3 -E1"/>
    </vehicle>
    <vehicle id="230" depart="156.00">
        <route edges="E1 -E5"/>
    </vehicle>
    <vehicle id="231" depart="156.00">
        <route edges="-E4 E3"/>
    </vehicle>
    <vehicle id="232" depart="156.00">
        <route edges="E1 -E5"/>
    </vehicle>
    <vehicle id="233" depart="157.00">
        <route edges="-E3 -E1"/>
    </vehicle>
    <vehicle id="234" depart="157.00">
        <route edges="E5 E4"/>
    </vehicle>
    <vehicle id="235" depart="158.00">
        <route edges="E5 E4"/>
    </vehicle>
    <vehicle id="236" depart="158.00">
        <route edges="E1 E3"/>
    </vehicle>
    <vehicle id="237" depart="159.00">
        <route edges="-E3 -E1"/>
    </vehicle>
    <vehicle id="238" depart="159.00">
        <route edges="-E4 E3"/>
    </vehicle>
    <vehicle id="239" depart="159.00">
        <route edges="E5 -E1"/>
    </vehicle>
    <vehicle id="241" depart="161.00">
        <route edges="-E4 E3"/>
    </vehicle>
    <vehicle id="243" depart="162.00">
        <route edges="E5 E3"/>
    </vehicle>
    <vehicle id="244" depart="162.00">
        <route edges="E1 E3"/>
    </vehicle>
    <vehicle id="245" depart="163.00">
        <route edges="E5 E4"/>
    </vehicle>
    <vehicle id="246" depart="163.00">
        <route edges="E1 -E5"/>
    </vehicle>
    <vehicle id="247" depart="163.00">
        <route edges="-E4 -E1"/>
    </vehicle>
    <vehicle id="248" depart="163.00">
        <route edges="E1 -E5"/>
    </vehicle>
    <vehicle id="249" depart="164.00">
        <route edges="E5 -E1"/>
    </vehicle>
    <vehicle id="251" depart="166.00">
        <route edges="-E4 -E1"/>
    </vehicle>
    <vehicle id="252" depart="166.00">
        <route edges="E5 -E1"/>
    </vehicle>
    <vehicle id="253" depart="167.00">
        <route edges="-E4 -E5"/>
    </vehicle>
    <vehicle id="254" depart="167.00">
        <route edges="E5 E3"/>
    </vehicle>
    <vehicle id="255" depart="168.00">
        <route edges="-E3 -E5"/>
    </vehicle>
    <vehicle id="256" depart="170.00">
        <route edges="E5 -E1"/>
    </vehicle>
    <vehicle id="257" depart="170.00">
        <route edges="-E4 -E1"/>
    </vehicle>
    <vehicle id="258" depart="171.00">
        <route edges="-E4 E3"/>
    </vehicle>
    <vehicle id="259" depart="172.00">
        <route edges="-E3 E4"/>
    </vehicle>
    <vehicle id="262" depart="173.00">
        <route edges="E5 E3"/>
    </vehicle>
    <vehicle id="263" depart="174.00">
        <route edges="-E3 -E5"/>
    </vehicle>
    <vehicle id="265" depart="174.00">
        <route edges="E5 E3"/>
    </vehicle>
    <vehicle id="266" depart="174.00">
        <route edges="E5 E3"/>
    </vehicle>
    <vehicle id="267" depart="176.00">
        <route edges="-E3 -E5"/>
    </vehicle>
    <vehicle id="268" depart="176.00">
        <route edges="-E3 -E1"/>
    </vehicle>
    <vehicle id="271" depart="178.00">
        <route edges="E5 E3"/>
    </vehicle>
    <vehicle id="272" depart="178.00">
        <route edges="E5 -E1"/>
    </vehicle>
    <vehicle id="274" depart="180.00">
        <route edges="-E3 -E1"/>
    </vehicle>
    <vehicle id="275" depart="180.00">
        <route edges="-E4 E3"/>
    </vehicle>
    <vehicle id="276" depart="182.00">
        <route edges="-E4 E3"/>
    </vehicle>
    <vehicle id="277" depart="183.00">
        <route edges="E1 -E5"/>
    </vehicle>
    <vehicle id="278" depart="184.00">
        <route edges="-E3 -E5"/>
    </vehicle>
    <vehicle id="279" depart="184.00">
        <route edges="E5 -E1"/>
    </vehicle>
    <vehicle id="281" depart="186.00">
        <route edges="-E4 -E5"/>
    </vehicle>
    <vehicle id="282" depart="187.00">
        <route edges="E1 E4"/>
    </vehicle>
    <vehicle id="283" depart="187.00">
        <route edges="E1 E4"/>
    </vehicle>
    <vehicle id="284" depart="188.00">
        <route edges="E5 -E1"/>
    </vehicle>
    <vehicle id="285" depart="188.00">
        <route edges="E1 -E5"/>
    </vehicle>
    <vehicle id="286" depart="189.00">
        <route edges="E1 -E5"/>
    </vehicle>
    <vehicle id="288" depart="190.00">
        <route edges="E1 E3"/>
    </vehicle>
    <vehicle id="289" depart="191.00">
        <route edges="-E3 -E1"/>
    </vehicle>
    <vehicle id="290" depart="192.00">
        <route edges="E5 E3"/>
    </vehicle>
    <vehicle id="291" depart="192.00">
        <route edges="-E3 E4"/>
    </vehicle>
    <vehicle id="292" depart="194.00">
        <route edges="E1 -E5"/>
    </vehicle>
    <vehicle id="293" depart="195.00">
        <route edges="E5 E4"/>
    </vehicle>
    <vehicle id="294" depart="195.00">
        <route edges="E5 E3"/>
    </vehicle>
    <vehicle id="296" depart="198.00">
        <route edges="E1 E4"/>
    </vehicle>
    <vehicle id="297" depart="198.00">
        <route edges="E1 E3"/>
    </vehicle>
    <vehicle id="298" depart="199.00">
        <route edges="E5 E4"/>
    </vehicle>
    <vehicle id="299" depart="199.00">
        <route edges="-E4 E3"/>
    </vehicle>
    <vehicle id="301" depart="201.00">
        <route edges="E5 E4"/>
    </vehicle>
    <vehicle id="302" depart="201.00">
        <route edges="E5 E4"/>
    </vehicle>
    <vehicle id="303" depart="202.00">
        <route edges="E1 -E5"/>
    </vehicle>
    <vehicle id="304" depart="202.00">
        <route edges="-E3 -E5"/>
    </vehicle>
    <vehicle id="305" depart="203.00">
        <route edges="E1 -E5"/>
    </vehicle>
    <vehicle id="308" depart="206.00">
        <route edges="-E3 -E1"/>
    </vehicle>
    <vehicle id="309" depart="207.00">
        <route edges="-E3 -E1"/>
    </vehicle>
    <vehicle id="310" depart="207.00">
        <route edges="E5 -E1"/>
    </vehicle>
    <vehicle id="312" depart="210.00">
        <route edges="-E3 -E1"/>
    </vehicle>
    <vehicle id="316" depart="211.00">
        <route edges="-E4 -E5"/>
    </vehicle>
    <vehicle id="317" depart="212.00">
        <route edges="E5 E3"/>
    </vehicle>
    <vehicle id="319" depart="216.00">
        <route edges="-E4 -E5"/>
    </vehicle>
    <vehicle id="320" depart="217.00">
        <route edges="-E3 E4"/>
    </vehicle>
    <vehicle id="321" depart="217.00">
        <route edges="-E4 -E5"/>
    </vehicle>
    <vehicle id="323" depart="220.00">
        <route edges="E5 -E1"/>
    </vehicle>
    <vehicle id="324" depart="221.00">
        <route edges="-E3 -E1"/>
    </vehicle>
    <vehicle id="325" depart="221.00">
        <route edges="-E3 E4"/>
    </vehicle>
    <vehicle id="326" depart="221.00">
        <route edges="-E3 -E5"/>
    </vehicle>
    <vehicle id="329" depart="222.00">
        <route edges="E5 E4"/>
    </vehicle>
    <vehicle id="330" depart="223.00">
        <route edges="-E3 -E1"/>
    </vehicle>
    <vehicle id="331" depart="225.00">
        <route edges="E1 E3"/>
    </vehicle>
    <vehicle id="332" depart="226.00">
        <route edges="E5 E3"/>
    </vehicle>
    <vehicle id="333" depart="226.00">
        <route edges="E1 E3"/>
    </vehicle>
    <vehicle id="335" depart="228.00">
        <route edges="E5 -E1"/>
    </vehicle>
    <vehicle id="336" depart="229.00">
        <route edges="-E4 -E5"/>
    </vehicle>
    <vehicle id="337" depart="229.00">
        <route edges="E5 -E1"/>
    </vehicle>
    <vehicle id="340" depart="231.00">
        <route edges="-E4 -E1"/>
    </vehicle>
    <vehicle id="341" depart="231.00">
        <route edges="E1 E3"/>
    </vehicle>
    <vehicle id="342" depart="232.00">
        <route edges="-E4 E3"/>
    </vehicle>
    <vehicle id="343" depart="233.00">
        <route edges="-E3 E4"/>
    </vehicle>
    <vehicle id="345" depart="236.00">
        <route edges="E5 E3"/>
    </vehicle>
    <vehicle id="346" depart="238.00">
        <route edges="-E4 -E1"/>
    </vehicle>
    <vehicle id="347" depart="239.00">
        <route edges="-E3 -E1"/>
    </vehicle>
    <vehicle id="348" depart="240.00">
        <route edges="E1 E4"/>
    </vehicle>
    <vehicle id="350" depart="242.00">
        <route edges="-E4 -E5"/>
    </vehicle>
    <vehicle id="351" depart="243.00">
        <route edges="E5 E4"/>
    </vehicle>
    <vehicle id="352" depart="244.00">
        <route edges="-E3 E4"/>
    </vehicle>
    <vehicle id="353" depart="245.00">
        <route edges="-E3 E4"/>
    </vehicle>
    <vehicle id="354" depart="246.00">
        <route edges="E1 -E5"/>
    </vehicle>
    <vehicle id="357" depart="247.00">
        <route edges="E1 E4"/>
    </vehicle>
    <vehicle id="358" depart="247.00">
        <route edges="E5 -E1"/>
    </vehicle>
    <vehicle id="359" depart="248.00">
        <route edges="-E4 E3"/>
    </vehicle>
    <vehicle id="360" depart="248.00">
        <route edges="E5 -E1"/>
    </vehicle>
    <vehicle id="365" depart="251.00">
        <route edges="-E4 -E1"/>
    </vehicle>
    <vehicle id="366" depart="252.00">
        <route edges="-E4 -E5"/>
    </vehicle>
    <vehicle id="367" depart="252.00">
        <route edges="E5 E3"/>
    </vehicle>
    <vehicle id="370" depart="253.00">
        <route edges="E5 E3"/>
    </vehicle>
    <vehicle id="371" depart="254.00">
        <route edges="E1 E3"/>
    </vehicle>
    <vehicle id="372" depart="256.00">
        <route edges="E1 E3"/>
    </vehicle>
    <vehicle id="374" depart="258.00">
        <route edges="E5 E4"/>
    </vehicle>
    <vehicle id="375" depart="258.00">
        <route edges="E5 E4"/>
    </vehicle>
    <vehicle id="376" depart="258.00">
        <route edges="E1 E4"/>
    </vehicle>
    <vehicle id="378" depart="259.00">
        <route edges="E1 -E5"/>
    </vehicle>
    <vehicle id="379" depart="259.00">
        <route edges="E1 E4"/>
    </vehicle>
    <vehicle id="380" depart="260.00">
        <route edges="-E4 -E5"/>
    </vehicle>
    <vehicle id="381" depart="261.00">
        <route edges="E5 E4"/>
    </vehicle>
    <vehicle id="382" depart="261.00">
        <route edges="-E3 -E5"/>
    </vehicle>
    <vehicle id="383" depart="261.00">
        <route edges="E5 E3"/>
    </vehicle>
    <vehicle id="384" depart="262.00">
        <route edges="E5 E3"/>
    </vehicle>
    <vehicle id="385" depart="262.00">
        <route edges="E1 E4"/>
    </vehicle>
    <vehicle id="386" depart="262.00">
        <route edges="E1 E4"/>
    </vehicle>
    <vehicle id="387" depart="263.00">
        <route edges="E1 E4"/>
    </vehicle>
    <vehicle id="389" depart="264.00">
        <route edges="-E4 E3"/>
    </vehicle>
    <vehicle id="392" depart="265.00">
        <route edges="E5 E3"/>
    </vehicle>
    <vehicle id="393" depart="266.00">
        <route edges="-E3 -E5"/>
    </vehicle>
    <vehicle id="394" depart="267.00">
        <route edges="E1 E4"/>
    </vehicle>
    <vehicle id="395" depart="267.00">
        <route edges="-E3 -E5"/>
    </vehicle>
    <vehicle id="396" depart="267.00">
        <route edges="E1 -E5"/>
    </vehicle>
    <vehicle id="397" depart="268.00">
        <route edges="-E3 E4"/>
    </vehicle>
    <vehicle id="398" depart="269.00">
        <route edges="E1 E4"/>
    </vehicle>
    <vehicle id="399" depart="269.00">
        <route edges="-E3 E4"/>
    </vehicle>
    <vehicle id="400" depart="269.00">
        <route edges="E5 E4"/>
    </vehicle>
    <vehicle id="402" depart="271.00">
        <route edges="E1 -E5"/>
    </vehicle>
    <vehicle id="403" depart="271.00">
        <route edges="-E3 -E1"/>
    </vehicle>
    <vehicle id="404" depart="272.00">
        <route edges="E5 E4"/>
    </vehicle>
    <vehicle id="405" depart="272.00">
        <route edges="-E4 -E5"/>
    </vehicle>
    <vehicle id="406" depart="273.00">
        <route edges="-E3 -E1"/>
    </vehicle>
    <vehicle id="407" depart="274.00">
        <route edges="E5 E3"/>
    </vehicle>
    <vehicle id="408" depart="274.00">
        <route edges="-E4 -E5"/>
    </vehicle>
    <vehicle id="409" depart="275.00">
        <route edges="E1 E3"/>
    </vehicle>
    <vehicle id="411" depart="276.00">
        <route edges="-E4 E3"/>
    </vehicle>
    <vehicle id="412" depart="277.00">
        <route edges="-E4 -E5"/>
    </vehicle>
    <vehicle id="413" depart="277.00">
        <route edges="E5 E4"/>
    </vehicle>
    <vehicle id="414" depart="278.00">
        <route edges="E1 -E5"/>
    </vehicle>
    <vehicle id="416" depart="282.00">
        <route edges="-E4 -E5"/>
    </vehicle>
    <vehicle id="417" depart="282.00">
        <route edges="E1 E4"/>
    </vehicle>
    <vehicle id="418" depart="283.00">
        <route edges="-E3 -E1"/>
    </vehicle>
    <vehicle id="419" depart="283.00">
        <route edges="E5 -E1"/>
    </vehicle>
    <vehicle id="420" depart="284.00">
        <route edges="-E3 E4"/>
    </vehicle>
    <vehicle id="421" depart="284.00">
        <route edges="E5 -E1"/>
    </vehicle>
    <vehicle id="423" depart="286.00">
        <route edges="E1 E4"/>
    </vehicle>
    <vehicle id="424" depart="287.00">
        <route edges="E1 -E5"/>
    </vehicle>
    <vehicle id="425" depart="287.00">
        <route edges="E5 -E1"/>
    </vehicle>
    <vehicle id="427" depart="289.00">
        <route edges="E5 -E1"/>
    </vehicle>
    <vehicle id="428" depart="290.00">
        <route edges="E5 E4"/>
    </vehicle>
    <vehicle id="429" depart="291.00">
        <route edges="-E3 E4"/>
    </vehicle>
    <vehicle id="430" depart="292.00">
        <route edges="E5 E3"/>
    </vehicle>
    <vehicle id="431" depart="292.00">
        <route edges="E5 -E1"/>
    </vehicle>
    <vehicle id="432" depart="292.00">
        <route edges="-E3 -E5"/>
    </vehicle>
    <vehicle id="433" depart="293.00">
        <route edges="E5 E4"/>
    </vehicle>
    <vehicle id="434" depart="294.00">
        <route edges="E5 E4"/>
    </vehicle>
    <vehicle id="436" depart="297.00">
        <route edges="-E3 -E1"/>
    </vehicle>
    <vehicle id="437" depart="297.00">
        <route edges="-E3 -E5"/>
    </vehicle>
    <vehicle id="438" depart="298.00">
        <route edges="E5 -E1"/>
    </vehicle>
    <vehicle id="440" depart="299.00">
        <route edges="E1 -E5"/>
    </vehicle>
    <vehicle id="441" depart="301.00">
        <route edges="E5 E4"/>
    </vehicle>
    <vehicle id="442" depart="301.00">
        <route edges="E5 -E1"/>
    </vehicle>
    <vehicle id="443" depart="301.00">
        <route edges="E5 E4"/>
    </vehicle>
    <vehicle id="444" depart="302.00">
        <route edges="-E4 -E5"/>
    </vehicle>
    <vehicle id="446" depart="303.00">
        <route edges="-E3 -E5"/>
    </vehicle>
    <vehicle id="447" depart="304.00">
        <route edges="-E4 E3"/>
    </vehicle>
    <vehicle id="449" depart="304.00">
        <route edges="-E4 -E5"/>
    </vehicle>
    <vehicle id="450" depart="305.00">
        <route edges="-E4 E3"/>
    </vehicle>
    <vehicle id="451" depart="305.00">
        <route edges="-E4 -E5"/>
    </vehicle>
    <vehicle id="453" depart="307.00">
        <route edges="-E3 -E1"/>
    </vehicle>
    <vehicle id="454" depart="308.00">
        <route edges="E1 E3"/>
    </vehicle>
    <vehicle id="455" depart="310.00">
        <route edges="E5 -E1"/>
    </vehicle>
    <vehicle id="457" depart="311.00">
        <route edges="-E3 -E5"/>
    </vehicle>
    <vehicle id="458" depart="312.00">
        <route edges="-E3 -E5"/>
    </vehicle>
    <vehicle id="459" depart="312.00">
        <route edges="-E4 -E5"/>
    </vehicle>
    <vehicle id="462" depart="315.00">
        <route edges="-E4 -E5"/>
    </vehicle>
    <vehicle id="463" depart="317.00">
        <route edges="-E4 E3"/>
    </vehicle>
    <vehicle id="464" depart="319.00">
        <route edges="-E3 E4"/>
    </vehicle>
    <vehicle id="465" depart="321.00">
        <route edges="-E4 E3"/>